
---------- Begin Simulation Statistics ----------
sim_seconds                                  0.004026                       # Number of seconds simulated
sim_ticks                                  4025883500                       # Number of ticks simulated
final_tick                                 4025883500                       # Number of ticks from beginning of simulation (restored from checkpoints and never reset)
sim_freq                                 1000000000000                       # Frequency of simulated ticks
host_inst_rate                                  91751                       # Simulator instruction rate (inst/s)
host_op_rate                                   141455                       # Simulator op (including micro ops) rate (op/s)
host_tick_rate                               25652287                       # Simulator tick rate (ticks/s)
host_mem_usage                                 669428                       # Number of bytes of host memory used
host_seconds                                   156.94                       # Real time elapsed on the host
sim_insts                                    14399449                       # Number of instructions simulated
sim_ops                                      22200084                       # Number of ops (including micro ops) simulated
system.voltage_domain.voltage                       1                       # Voltage in Volts
system.clk_domain.clock                           500                       # Clock period in ticks
system.mem_ctrls.pwrStateResidencyTicks::UNDEFINED   4025883500                       # Cumulative time (in ticks) in various power states
system.mem_ctrls.bytes_read::.cpu.inst          51264                       # Number of bytes read from this memory
system.mem_ctrls.bytes_read::.cpu.data         291968                       # Number of bytes read from this memory
system.mem_ctrls.bytes_read::total             343232                       # Number of bytes read from this memory
system.mem_ctrls.bytes_inst_read::.cpu.inst        51264                       # Number of instructions bytes read from this memory
system.mem_ctrls.bytes_inst_read::total         51264                       # Number of instructions bytes read from this memory
system.mem_ctrls.num_reads::.cpu.inst             801                       # Number of read requests responded to by this memory
system.mem_ctrls.num_reads::.cpu.data            4562                       # Number of read requests responded to by this memory
system.mem_ctrls.num_reads::total                5363                       # Number of read requests responded to by this memory
system.mem_ctrls.bw_read::.cpu.inst          12733602                       # Total read bandwidth from this memory (bytes/s)
system.mem_ctrls.bw_read::.cpu.data          72522715                       # Total read bandwidth from this memory (bytes/s)
system.mem_ctrls.bw_read::total              85256317                       # Total read bandwidth from this memory (bytes/s)
system.mem_ctrls.bw_inst_read::.cpu.inst     12733602                       # Instruction read bandwidth from this memory (bytes/s)
system.mem_ctrls.bw_inst_read::total         12733602                       # Instruction read bandwidth from this memory (bytes/s)
system.mem_ctrls.bw_total::.cpu.inst         12733602                       # Total bandwidth to/from this memory (bytes/s)
system.mem_ctrls.bw_total::.cpu.data         72522715                       # Total bandwidth to/from this memory (bytes/s)
system.mem_ctrls.bw_total::total             85256317                       # Total bandwidth to/from this memory (bytes/s)
system.mem_ctrls.avgPriority_.cpu.inst::samples       801.00                       # Average QoS priority value for accepted requests
system.mem_ctrls.avgPriority_.cpu.data::samples      4562.00                       # Average QoS priority value for accepted requests
system.mem_ctrls.priorityMinLatency      0.000000018750                       # per QoS priority minimum request to response latency (s)
system.mem_ctrls.priorityMaxLatency      0.000001120250                       # per QoS priority maximum request to response latency (s)
system.mem_ctrls.numReadWriteTurnArounds            0                       # Number of turnarounds from READ to WRITE
system.mem_ctrls.numWriteReadTurnArounds            0                       # Number of turnarounds from WRITE to READ
system.mem_ctrls.numStayReadState               10951                       # Number of times bus staying in READ state
system.mem_ctrls.numStayWriteState                  0                       # Number of times bus staying in WRITE state
system.mem_ctrls.readReqs                        5363                       # Number of read requests accepted
system.mem_ctrls.writeReqs                          0                       # Number of write requests accepted
system.mem_ctrls.readBursts                      5363                       # Number of DRAM read bursts, including those serviced by the write queue
system.mem_ctrls.writeBursts                        0                       # Number of DRAM write bursts, including those merged in the write queue
system.mem_ctrls.bytesReadDRAM                 343232                       # Total number of bytes read from DRAM
system.mem_ctrls.bytesReadWrQ                       0                       # Total number of bytes read from write queue
system.mem_ctrls.bytesWritten                       0                       # Total number of bytes written to DRAM
system.mem_ctrls.bytesReadSys                  343232                       # Total read bytes from the system interface side
system.mem_ctrls.bytesWrittenSys                    0                       # Total written bytes from the system interface side
system.mem_ctrls.servicedByWrQ                      0                       # Number of DRAM read bursts serviced by the write queue
system.mem_ctrls.mergedWrBursts                     0                       # Number of DRAM write bursts merged with an existing one
system.mem_ctrls.neitherReadNorWriteReqs            0                       # Number of requests that are neither read nor write
system.mem_ctrls.perBankRdBursts::0               341                       # Per bank write bursts
system.mem_ctrls.perBankRdBursts::1               451                       # Per bank write bursts
system.mem_ctrls.perBankRdBursts::2               457                       # Per bank write bursts
system.mem_ctrls.perBankRdBursts::3               408                       # Per bank write bursts
system.mem_ctrls.perBankRdBursts::4               388                       # Per bank write bursts
system.mem_ctrls.perBankRdBursts::5               360                       # Per bank write bursts
system.mem_ctrls.perBankRdBursts::6               329                       # Per bank write bursts
system.mem_ctrls.perBankRdBursts::7               324                       # Per bank write bursts
system.mem_ctrls.perBankRdBursts::8               295                       # Per bank write bursts
system.mem_ctrls.perBankRdBursts::9               226                       # Per bank write bursts
system.mem_ctrls.perBankRdBursts::10              339                       # Per bank write bursts
system.mem_ctrls.perBankRdBursts::11              288                       # Per bank write bursts
system.mem_ctrls.perBankRdBursts::12              281                       # Per bank write bursts
system.mem_ctrls.perBankRdBursts::13              296                       # Per bank write bursts
system.mem_ctrls.perBankRdBursts::14              333                       # Per bank write bursts
system.mem_ctrls.perBankRdBursts::15              247                       # Per bank write bursts
system.mem_ctrls.perBankWrBursts::0                 0                       # Per bank write bursts
system.mem_ctrls.perBankWrBursts::1                 0                       # Per bank write bursts
system.mem_ctrls.perBankWrBursts::2                 0                       # Per bank write bursts
system.mem_ctrls.perBankWrBursts::3                 0                       # Per bank write bursts
system.mem_ctrls.perBankWrBursts::4                 0                       # Per bank write bursts
system.mem_ctrls.perBankWrBursts::5                 0                       # Per bank write bursts
system.mem_ctrls.perBankWrBursts::6                 0                       # Per bank write bursts
system.mem_ctrls.perBankWrBursts::7                 0                       # Per bank write bursts
system.mem_ctrls.perBankWrBursts::8                 0                       # Per bank write bursts
system.mem_ctrls.perBankWrBursts::9                 0                       # Per bank write bursts
system.mem_ctrls.perBankWrBursts::10                0                       # Per bank write bursts
system.mem_ctrls.perBankWrBursts::11                0                       # Per bank write bursts
system.mem_ctrls.perBankWrBursts::12                0                       # Per bank write bursts
system.mem_ctrls.perBankWrBursts::13                0                       # Per bank write bursts
system.mem_ctrls.perBankWrBursts::14                0                       # Per bank write bursts
system.mem_ctrls.perBankWrBursts::15                0                       # Per bank write bursts
system.mem_ctrls.numRdRetry                         0                       # Number of times read queue was full causing retry
system.mem_ctrls.numWrRetry                         0                       # Number of times write queue was full causing retry
system.mem_ctrls.totGap                    4025805000                       # Total gap between requests
system.mem_ctrls.readPktSize::0                     0                       # Read request sizes (log2)
system.mem_ctrls.readPktSize::1                     0                       # Read request sizes (log2)
system.mem_ctrls.readPktSize::2                     0                       # Read request sizes (log2)
system.mem_ctrls.readPktSize::3                     0                       # Read request sizes (log2)
system.mem_ctrls.readPktSize::4                     0                       # Read request sizes (log2)
system.mem_ctrls.readPktSize::5                     0                       # Read request sizes (log2)
system.mem_ctrls.readPktSize::6                  5363                       # Read request sizes (log2)
system.mem_ctrls.writePktSize::0                    0                       # Write request sizes (log2)
system.mem_ctrls.writePktSize::1                    0                       # Write request sizes (log2)
system.mem_ctrls.writePktSize::2                    0                       # Write request sizes (log2)
system.mem_ctrls.writePktSize::3                    0                       # Write request sizes (log2)
system.mem_ctrls.writePktSize::4                    0                       # Write request sizes (log2)
system.mem_ctrls.writePktSize::5                    0                       # Write request sizes (log2)
system.mem_ctrls.writePktSize::6                    0                       # Write request sizes (log2)
system.mem_ctrls.rdQLenPdf::0                    3658                       # What read queue length does an incoming req see
system.mem_ctrls.rdQLenPdf::1                    1207                       # What read queue length does an incoming req see
system.mem_ctrls.rdQLenPdf::2                     342                       # What read queue length does an incoming req see
system.mem_ctrls.rdQLenPdf::3                     148                       # What read queue length does an incoming req see
system.mem_ctrls.rdQLenPdf::4                       7                       # What read queue length does an incoming req see
system.mem_ctrls.rdQLenPdf::5                       1                       # What read queue length does an incoming req see
system.mem_ctrls.rdQLenPdf::6                       0                       # What read queue length does an incoming req see
system.mem_ctrls.rdQLenPdf::7                       0                       # What read queue length does an incoming req see
system.mem_ctrls.rdQLenPdf::8                       0                       # What read queue length does an incoming req see
system.mem_ctrls.rdQLenPdf::9                       0                       # What read queue length does an incoming req see
system.mem_ctrls.rdQLenPdf::10                      0                       # What read queue length does an incoming req see
system.mem_ctrls.rdQLenPdf::11                      0                       # What read queue length does an incoming req see
system.mem_ctrls.rdQLenPdf::12                      0                       # What read queue length does an incoming req see
system.mem_ctrls.rdQLenPdf::13                      0                       # What read queue length does an incoming req see
system.mem_ctrls.rdQLenPdf::14                      0                       # What read queue length does an incoming req see
system.mem_ctrls.rdQLenPdf::15                      0                       # What read queue length does an incoming req see
system.mem_ctrls.rdQLenPdf::16                      0                       # What read queue length does an incoming req see
system.mem_ctrls.rdQLenPdf::17                      0                       # What read queue length does an incoming req see
system.mem_ctrls.rdQLenPdf::18                      0                       # What read queue length does an incoming req see
system.mem_ctrls.rdQLenPdf::19                      0                       # What read queue length does an incoming req see
system.mem_ctrls.rdQLenPdf::20                      0                       # What read queue length does an incoming req see
system.mem_ctrls.rdQLenPdf::21                      0                       # What read queue length does an incoming req see
system.mem_ctrls.rdQLenPdf::22                      0                       # What read queue length does an incoming req see
system.mem_ctrls.rdQLenPdf::23                      0                       # What read queue length does an incoming req see
system.mem_ctrls.rdQLenPdf::24                      0                       # What read queue length does an incoming req see
system.mem_ctrls.rdQLenPdf::25                      0                       # What read queue length does an incoming req see
system.mem_ctrls.rdQLenPdf::26                      0                       # What read queue length does an incoming req see
system.mem_ctrls.rdQLenPdf::27                      0                       # What read queue length does an incoming req see
system.mem_ctrls.rdQLenPdf::28                      0                       # What read queue length does an incoming req see
system.mem_ctrls.rdQLenPdf::29                      0                       # What read queue length does an incoming req see
system.mem_ctrls.rdQLenPdf::30                      0                       # What read queue length does an incoming req see
system.mem_ctrls.rdQLenPdf::31                      0                       # What read queue length does an incoming req see
system.mem_ctrls.wrQLenPdf::0                       0                       # What write queue length does an incoming req see
system.mem_ctrls.wrQLenPdf::1                       0                       # What write queue length does an incoming req see
system.mem_ctrls.wrQLenPdf::2                       0                       # What write queue length does an incoming req see
system.mem_ctrls.wrQLenPdf::3                       0                       # What write queue length does an incoming req see
system.mem_ctrls.wrQLenPdf::4                       0                       # What write queue length does an incoming req see
system.mem_ctrls.wrQLenPdf::5                       0                       # What write queue length does an incoming req see
system.mem_ctrls.wrQLenPdf::6                       0                       # What write queue length does an incoming req see
system.mem_ctrls.wrQLenPdf::7                       0                       # What write queue length does an incoming req see
system.mem_ctrls.wrQLenPdf::8                       0                       # What write queue length does an incoming req see
system.mem_ctrls.wrQLenPdf::9                       0                       # What write queue length does an incoming req see
system.mem_ctrls.wrQLenPdf::10                      0                       # What write queue length does an incoming req see
system.mem_ctrls.wrQLenPdf::11                      0                       # What write queue length does an incoming req see
system.mem_ctrls.wrQLenPdf::12                      0                       # What write queue length does an incoming req see
system.mem_ctrls.wrQLenPdf::13                      0                       # What write queue length does an incoming req see
system.mem_ctrls.wrQLenPdf::14                      0                       # What write queue length does an incoming req see
system.mem_ctrls.wrQLenPdf::15                      0                       # What write queue length does an incoming req see
system.mem_ctrls.wrQLenPdf::16                      0                       # What write queue length does an incoming req see
system.mem_ctrls.wrQLenPdf::17                      0                       # What write queue length does an incoming req see
system.mem_ctrls.wrQLenPdf::18                      0                       # What write queue length does an incoming req see
system.mem_ctrls.wrQLenPdf::19                      0                       # What write queue length does an incoming req see
system.mem_ctrls.wrQLenPdf::20                      0                       # What write queue length does an incoming req see
system.mem_ctrls.wrQLenPdf::21                      0                       # What write queue length does an incoming req see
system.mem_ctrls.wrQLenPdf::22                      0                       # What write queue length does an incoming req see
system.mem_ctrls.wrQLenPdf::23                      0                       # What write queue length does an incoming req see
system.mem_ctrls.wrQLenPdf::24                      0                       # What write queue length does an incoming req see
system.mem_ctrls.wrQLenPdf::25                      0                       # What write queue length does an incoming req see
system.mem_ctrls.wrQLenPdf::26                      0                       # What write queue length does an incoming req see
system.mem_ctrls.wrQLenPdf::27                      0                       # What write queue length does an incoming req see
system.mem_ctrls.wrQLenPdf::28                      0                       # What write queue length does an incoming req see
system.mem_ctrls.wrQLenPdf::29                      0                       # What write queue length does an incoming req see
system.mem_ctrls.wrQLenPdf::30                      0                       # What write queue length does an incoming req see
system.mem_ctrls.wrQLenPdf::31                      0                       # What write queue length does an incoming req see
system.mem_ctrls.wrQLenPdf::32                      0                       # What write queue length does an incoming req see
system.mem_ctrls.wrQLenPdf::33                      0                       # What write queue length does an incoming req see
system.mem_ctrls.wrQLenPdf::34                      0                       # What write queue length does an incoming req see
system.mem_ctrls.wrQLenPdf::35                      0                       # What write queue length does an incoming req see
system.mem_ctrls.wrQLenPdf::36                      0                       # What write queue length does an incoming req see
system.mem_ctrls.wrQLenPdf::37                      0                       # What write queue length does an incoming req see
system.mem_ctrls.wrQLenPdf::38                      0                       # What write queue length does an incoming req see
system.mem_ctrls.wrQLenPdf::39                      0                       # What write queue length does an incoming req see
system.mem_ctrls.wrQLenPdf::40                      0                       # What write queue length does an incoming req see
system.mem_ctrls.wrQLenPdf::41                      0                       # What write queue length does an incoming req see
system.mem_ctrls.wrQLenPdf::42                      0                       # What write queue length does an incoming req see
system.mem_ctrls.wrQLenPdf::43                      0                       # What write queue length does an incoming req see
system.mem_ctrls.wrQLenPdf::44                      0                       # What write queue length does an incoming req see
system.mem_ctrls.wrQLenPdf::45                      0                       # What write queue length does an incoming req see
system.mem_ctrls.wrQLenPdf::46                      0                       # What write queue length does an incoming req see
system.mem_ctrls.wrQLenPdf::47                      0                       # What write queue length does an incoming req see
system.mem_ctrls.wrQLenPdf::48                      0                       # What write queue length does an incoming req see
system.mem_ctrls.wrQLenPdf::49                      0                       # What write queue length does an incoming req see
system.mem_ctrls.wrQLenPdf::50                      0                       # What write queue length does an incoming req see
system.mem_ctrls.wrQLenPdf::51                      0                       # What write queue length does an incoming req see
system.mem_ctrls.wrQLenPdf::52                      0                       # What write queue length does an incoming req see
system.mem_ctrls.wrQLenPdf::53                      0                       # What write queue length does an incoming req see
system.mem_ctrls.wrQLenPdf::54                      0                       # What write queue length does an incoming req see
system.mem_ctrls.wrQLenPdf::55                      0                       # What write queue length does an incoming req see
system.mem_ctrls.wrQLenPdf::56                      0                       # What write queue length does an incoming req see
system.mem_ctrls.wrQLenPdf::57                      0                       # What write queue length does an incoming req see
system.mem_ctrls.wrQLenPdf::58                      0                       # What write queue length does an incoming req see
system.mem_ctrls.wrQLenPdf::59                      0                       # What write queue length does an incoming req see
system.mem_ctrls.wrQLenPdf::60                      0                       # What write queue length does an incoming req see
system.mem_ctrls.wrQLenPdf::61                      0                       # What write queue length does an incoming req see
system.mem_ctrls.wrQLenPdf::62                      0                       # What write queue length does an incoming req see
system.mem_ctrls.wrQLenPdf::63                      0                       # What write queue length does an incoming req see
system.mem_ctrls.bytesPerActivate::samples          699                       # Bytes accessed per row activation
system.mem_ctrls.bytesPerActivate::mean    489.293276                       # Bytes accessed per row activation
system.mem_ctrls.bytesPerActivate::gmean   312.939708                       # Bytes accessed per row activation
system.mem_ctrls.bytesPerActivate::stdev   376.000821                       # Bytes accessed per row activation
system.mem_ctrls.bytesPerActivate::0-127          158     22.60%     22.60% # Bytes accessed per row activation
system.mem_ctrls.bytesPerActivate::128-255          101     14.45%     37.05% # Bytes accessed per row activation
system.mem_ctrls.bytesPerActivate::256-383           47      6.72%     43.78% # Bytes accessed per row activation
system.mem_ctrls.bytesPerActivate::384-511           44      6.29%     50.07% # Bytes accessed per row activation
system.mem_ctrls.bytesPerActivate::512-639          112     16.02%     66.09% # Bytes accessed per row activation
system.mem_ctrls.bytesPerActivate::640-767           22      3.15%     69.24% # Bytes accessed per row activation
system.mem_ctrls.bytesPerActivate::768-895           23      3.29%     72.53% # Bytes accessed per row activation
system.mem_ctrls.bytesPerActivate::896-1023           19      2.72%     75.25% # Bytes accessed per row activation
system.mem_ctrls.bytesPerActivate::1024-1151          173     24.75%    100.00% # Bytes accessed per row activation
system.mem_ctrls.bytesPerActivate::total          699                       # Bytes accessed per row activation
system.mem_ctrls.masterReadBytes::.cpu.inst        51264                       # Per-master bytes read from memory
system.mem_ctrls.masterReadBytes::.cpu.data       291968                       # Per-master bytes read from memory
system.mem_ctrls.masterReadRate::.cpu.inst 12733602.450244773179                       # Per-master bytes read from memory rate (Bytes/sec)
system.mem_ctrls.masterReadRate::.cpu.data 72522714.579296693206                       # Per-master bytes read from memory rate (Bytes/sec)
system.mem_ctrls.masterReadAccesses::.cpu.inst          801                       # Per-master read serviced memory accesses
system.mem_ctrls.masterReadAccesses::.cpu.data         4562                       # Per-master read serviced memory accesses
system.mem_ctrls.masterReadTotalLat::.cpu.inst     25480500                       # Per-master read total memory access latency
system.mem_ctrls.masterReadTotalLat::.cpu.data    233213000                       # Per-master read total memory access latency
system.mem_ctrls.masterReadAvgLat::.cpu.inst     31810.86                       # Per-master read average memory access latency
system.mem_ctrls.masterReadAvgLat::.cpu.data     51120.78                       # Per-master read average memory access latency
system.mem_ctrls.totQLat                    158137250                       # Total ticks spent queuing
system.mem_ctrls.totMemAccLat               258693500                       # Total ticks spent from burst creation until serviced by the DRAM
system.mem_ctrls.totBusLat                   26815000                       # Total ticks spent in databus transfers
system.mem_ctrls.avgQLat                     29486.71                       # Average queueing delay per DRAM burst
system.mem_ctrls.avgBusLat                    5000.00                       # Average bus latency per DRAM burst
system.mem_ctrls.avgMemAccLat                48236.71                       # Average memory access latency per DRAM burst
system.mem_ctrls.avgRdBW                        85.26                       # Average DRAM read bandwidth in MiByte/s
system.mem_ctrls.avgWrBW                         0.00                       # Average achieved write bandwidth in MiByte/s
system.mem_ctrls.avgRdBWSys                     85.26                       # Average system read bandwidth in MiByte/s
system.mem_ctrls.avgWrBWSys                      0.00                       # Average system write bandwidth in MiByte/s
system.mem_ctrls.peakBW                      12800.00                       # Theoretical peak bandwidth in MiByte/s
system.mem_ctrls.busUtil                         0.67                       # Data bus utilization in percentage
system.mem_ctrls.busUtilRead                     0.67                       # Data bus utilization in percentage for reads
system.mem_ctrls.busUtilWrite                    0.00                       # Data bus utilization in percentage for writes
system.mem_ctrls.avgRdQLen                       1.78                       # Average read queue length when enqueuing
system.mem_ctrls.avgWrQLen                       0.00                       # Average write queue length when enqueuing
system.mem_ctrls.readRowHits                     4654                       # Number of row buffer hits during reads
system.mem_ctrls.writeRowHits                       0                       # Number of row buffer hits during writes
system.mem_ctrls.readRowHitRate                 86.78                       # Row buffer hit rate for reads
system.mem_ctrls.writeRowHitRate                  nan                       # Row buffer hit rate for writes
system.mem_ctrls.avgGap                     750662.88                       # Average gap between requests
system.mem_ctrls.pageHitRate                    86.78                       # Row buffer hit rate, read and write combined
system.mem_ctrls_0.actEnergy                  2691780                       # Energy for activate commands per rank (pJ)
system.mem_ctrls_0.preEnergy                  1419330                       # Energy for precharge commands per rank (pJ)
system.mem_ctrls_0.readEnergy                21834120                       # Energy for read commands per rank (pJ)
system.mem_ctrls_0.writeEnergy                      0                       # Energy for write commands per rank (pJ)
system.mem_ctrls_0.refreshEnergy         120469440.000000                       # Energy for refresh commands per rank (pJ)
system.mem_ctrls_0.actBackEnergy             65588190                       # Energy for active background per rank (pJ)
system.mem_ctrls_0.preBackEnergy             10313280                       # Energy for precharge background per rank (pJ)
system.mem_ctrls_0.actPowerDownEnergy       334095240                       # Energy for active power-down per rank (pJ)
system.mem_ctrls_0.prePowerDownEnergy       247711680                       # Energy for precharge power-down per rank (pJ)
system.mem_ctrls_0.selfRefreshEnergy        632691360                       # Energy for self refresh per rank (pJ)
system.mem_ctrls_0.totalEnergy             1436891520                       # Total energy per rank (pJ)
system.mem_ctrls_0.averagePower            356.913338                       # Core power per rank (mW)
system.mem_ctrls_0.totalIdleTime           3854893250                       # Total Idle time Per DRAM Rank
system.mem_ctrls_0.memoryStateTime::IDLE     22154000                       # Time in different power states
system.mem_ctrls_0.memoryStateTime::REF      50960000                       # Time in different power states
system.mem_ctrls_0.memoryStateTime::SREF   2477278000                       # Time in different power states
system.mem_ctrls_0.memoryStateTime::PRE_PDN    645082750                       # Time in different power states
system.mem_ctrls_0.memoryStateTime::ACT      97740250                       # Time in different power states
system.mem_ctrls_0.memoryStateTime::ACT_PDN    732668500                       # Time in different power states
system.mem_ctrls_1.actEnergy                  2370480                       # Energy for activate commands per rank (pJ)
system.mem_ctrls_1.preEnergy                  1233375                       # Energy for precharge commands per rank (pJ)
system.mem_ctrls_1.readEnergy                16457700                       # Energy for read commands per rank (pJ)
system.mem_ctrls_1.writeEnergy                      0                       # Energy for write commands per rank (pJ)
system.mem_ctrls_1.refreshEnergy         52859040.000000                       # Energy for refresh commands per rank (pJ)
system.mem_ctrls_1.actBackEnergy             44691990                       # Energy for active background per rank (pJ)
system.mem_ctrls_1.preBackEnergy              4094880                       # Energy for precharge background per rank (pJ)
system.mem_ctrls_1.actPowerDownEnergy       163124310                       # Energy for active power-down per rank (pJ)
system.mem_ctrls_1.prePowerDownEnergy        81780960                       # Energy for precharge power-down per rank (pJ)
system.mem_ctrls_1.selfRefreshEnergy        819177660                       # Energy for self refresh per rank (pJ)
system.mem_ctrls_1.totalEnergy             1185892305                       # Total energy per rank (pJ)
system.mem_ctrls_1.averagePower            294.566970                       # Core power per rank (mW)
system.mem_ctrls_1.totalIdleTime           3916982750                       # Total Idle time Per DRAM Rank
system.mem_ctrls_1.memoryStateTime::IDLE      8495500                       # Time in different power states
system.mem_ctrls_1.memoryStateTime::REF      22360000                       # Time in different power states
system.mem_ctrls_1.memoryStateTime::SREF   3346281500                       # Time in different power states
system.mem_ctrls_1.memoryStateTime::PRE_PDN    212973250                       # Time in different power states
system.mem_ctrls_1.memoryStateTime::ACT      78003000                       # Time in different power states
system.mem_ctrls_1.memoryStateTime::ACT_PDN    357770250                       # Time in different power states
system.pwrStateResidencyTicks::UNDEFINED   4025883500                       # Cumulative time (in ticks) in various power states
system.cpu.branchPred.lookups                  325487                       # Number of BP lookups
system.cpu.branchPred.condPredicted            325487                       # Number of conditional branches predicted
system.cpu.branchPred.condIncorrect              2957                       # Number of conditional branches incorrect
system.cpu.branchPred.BTBLookups               289996                       # Number of BTB lookups
system.cpu.branchPred.BTBHits                       0                       # Number of BTB hits
system.cpu.branchPred.BTBCorrect                    0                       # Number of correct BTB predictions (this stat may not work properly.
system.cpu.branchPred.BTBHitPct              0.000000                       # BTB Hit Percentage
system.cpu.branchPred.usedRAS                    1347                       # Number of times the RAS was used to get a target.
system.cpu.branchPred.RASInCorrect                346                       # Number of incorrect RAS predictions.
system.cpu.branchPred.indirectLookups          289996                       # Number of indirect predictor lookups.
system.cpu.branchPred.indirectHits             270596                       # Number of indirect target hits.
system.cpu.branchPred.indirectMisses            19400                       # Number of indirect misses.
system.cpu.branchPredindirectMispredicted         1784                       # Number of mispredicted indirect branches.
system.cpu_voltage_domain.voltage                   1                       # Voltage in Volts
system.cpu_clk_domain.clock                       500                       # Clock period in ticks
system.cpu.dtb.walker.pwrStateResidencyTicks::UNDEFINED   4025883500                       # Cumulative time (in ticks) in various power states
system.cpu.dtb.rdAccesses                     4878257                       # TLB accesses on read requests
system.cpu.dtb.wrAccesses                     2110541                       # TLB accesses on write requests
system.cpu.dtb.rdMisses                           505                       # TLB misses on read requests
system.cpu.dtb.wrMisses                            89                       # TLB misses on write requests
system.cpu.apic_clk_domain.clock                 8000                       # Clock period in ticks
system.cpu.interrupts.pwrStateResidencyTicks::UNDEFINED   4025883500                       # Cumulative time (in ticks) in various power states
system.cpu.itb.walker.pwrStateResidencyTicks::UNDEFINED   4025883500                       # Cumulative time (in ticks) in various power states
system.cpu.itb.rdAccesses                           0                       # TLB accesses on read requests
system.cpu.itb.wrAccesses                     1625491                       # TLB accesses on write requests
system.cpu.itb.rdMisses                             0                       # TLB misses on read requests
system.cpu.itb.wrMisses                           116                       # TLB misses on write requests
system.cpu.workload.numSyscalls                    27                       # Number of system calls
system.cpu.pwrStateResidencyTicks::ON      4025883500                       # Cumulative time (in ticks) in various power states
system.cpu.numCycles                          8051768                       # number of cpu cycles simulated
system.cpu.numWorkItemsStarted                      0                       # number of work items this cpu started
system.cpu.numWorkItemsCompleted                    0                       # number of work items this cpu completed
system.cpu.fetch.icacheStallCycles            1651483                       # Number of cycles fetch is stalled on an Icache miss
system.cpu.fetch.Insts                       14497679                       # Number of instructions fetch has processed
system.cpu.fetch.Branches                      325487                       # Number of branches that fetch encountered
system.cpu.fetch.predictedBranches             271943                       # Number of branches that fetch has predicted taken
system.cpu.fetch.Cycles                       6339140                       # Number of cycles fetch has run and was not squashing or blocked
system.cpu.fetch.SquashCycles                    6284                       # Number of cycles fetch has spent squashing
system.cpu.fetch.TlbCycles                        151                       # Number of cycles fetch has spent waiting for tlb
system.cpu.fetch.MiscStallCycles                   19                       # Number of cycles fetch has spent waiting on interrupts, or bad addresses, or out of MSHRs
system.cpu.fetch.PendingTrapStallCycles           349                       # Number of stall cycles due to pending traps
system.cpu.fetch.PendingQuiesceStallCycles           14                       # Number of stall cycles due to pending quiesce instructions
system.cpu.fetch.IcacheWaitRetryStallCycles           15                       # Number of stall cycles due to full MSHR
system.cpu.fetch.CacheLines                   1625446                       # Number of cache lines fetched
system.cpu.fetch.IcacheSquashes                  1142                       # Number of outstanding Icache misses that were squashed
system.cpu.fetch.rateDist::samples            7994313                       # Number of instructions fetched each cycle (Total)
system.cpu.fetch.rateDist::mean              2.798722                       # Number of instructions fetched each cycle (Total)
system.cpu.fetch.rateDist::stdev             3.473304                       # Number of instructions fetched each cycle (Total)
system.cpu.fetch.rateDist::underflows               0      0.00%      0.00% # Number of instructions fetched each cycle (Total)
system.cpu.fetch.rateDist::0                  4355500     54.48%     54.48% # Number of instructions fetched each cycle (Total)
system.cpu.fetch.rateDist::1                   371914      4.65%     59.13% # Number of instructions fetched each cycle (Total)
system.cpu.fetch.rateDist::2                   116471      1.46%     60.59% # Number of instructions fetched each cycle (Total)
system.cpu.fetch.rateDist::3                   175449      2.19%     62.79% # Number of instructions fetched each cycle (Total)
system.cpu.fetch.rateDist::4                   260541      3.26%     66.05% # Number of instructions fetched each cycle (Total)
system.cpu.fetch.rateDist::5                   145317      1.82%     67.86% # Number of instructions fetched each cycle (Total)
system.cpu.fetch.rateDist::6                   302013      3.78%     71.64% # Number of instructions fetched each cycle (Total)
system.cpu.fetch.rateDist::7                   475032      5.94%     77.58% # Number of instructions fetched each cycle (Total)
system.cpu.fetch.rateDist::8                  1792076     22.42%    100.00% # Number of instructions fetched each cycle (Total)
system.cpu.fetch.rateDist::overflows                0      0.00%    100.00% # Number of instructions fetched each cycle (Total)
system.cpu.fetch.rateDist::min_value                0                       # Number of instructions fetched each cycle (Total)
system.cpu.fetch.rateDist::max_value                8                       # Number of instructions fetched each cycle (Total)
system.cpu.fetch.rateDist::total              7994313                       # Number of instructions fetched each cycle (Total)
system.cpu.fetch.branchRate                  0.040424                       # Number of branch fetches per cycle
system.cpu.fetch.rate                        1.800558                       # Number of inst fetches per cycle
system.cpu.decode.IdleCycles                   635644                       # Number of cycles decode is idle
system.cpu.decode.BlockedCycles               4448908                       # Number of cycles decode is blocked
system.cpu.decode.RunCycles                   1538511                       # Number of cycles decode is running
system.cpu.decode.UnblockCycles               1368108                       # Number of cycles decode is unblocking
system.cpu.decode.SquashCycles                   3142                       # Number of cycles decode is squashing
system.cpu.decode.DecodedInsts               22346178                       # Number of instructions handled by decode
system.cpu.rename.SquashCycles                   3142                       # Number of cycles rename is squashing
system.cpu.rename.IdleCycles                  1175749                       # Number of cycles rename is idle
system.cpu.rename.BlockCycles                  148579                       # Number of cycles rename is blocking
system.cpu.rename.serializeStallCycles           2803                       # count of cycles rename stalled for serializing inst
system.cpu.rename.RunCycles                   2365582                       # Number of cycles rename is running
system.cpu.rename.UnblockCycles               4298458                       # Number of cycles rename is unblocking
system.cpu.rename.RenamedInsts               22332669                       # Number of instructions processed by rename
system.cpu.rename.ROBFullEvents                  1191                       # Number of times rename has blocked due to ROB full
system.cpu.rename.IQFullEvents                 322327                       # Number of times rename has blocked due to IQ full
system.cpu.rename.LQFullEvents                3822596                       # Number of times rename has blocked due to LQ full
system.cpu.rename.SQFullEvents                  24025                       # Number of times rename has blocked due to SQ full
system.cpu.rename.RenamedOperands            21663428                       # Number of destination operands rename has renamed
system.cpu.rename.RenameLookups              48509976                       # Number of register rename lookups that rename has made
system.cpu.rename.int_rename_lookups         24898240                       # Number of integer rename lookups
system.cpu.rename.fp_rename_lookups          14700091                       # Number of floating rename lookups
system.cpu.rename.CommittedMaps              21513140                       # Number of HB maps that are committed
system.cpu.rename.UndoneMaps                   150288                       # Number of HB maps that are undone due to squashing
system.cpu.rename.serializingInsts                 85                       # count of serializing insts renamed
system.cpu.rename.tempSerializingInsts             58                       # count of temporary serializing insts renamed
system.cpu.rename.skidInsts                   7061228                       # count of insts added to the skid buffer
system.cpu.memDep0.insertedLoads              4525979                       # Number of loads inserted to the mem dependence unit.
system.cpu.memDep0.insertedStores             2114111                       # Number of stores inserted to the mem dependence unit.
system.cpu.memDep0.conflictingLoads           2098467                       # Number of conflicting loads.
system.cpu.memDep0.conflictingStores          2079618                       # Number of conflicting stores.
system.cpu.iq.iqInstsAdded                   22308331                       # Number of instructions added to the IQ (excludes non-spec)
system.cpu.iq.iqNonSpecInstsAdded                  75                       # Number of non-speculative instructions added to the IQ
system.cpu.iq.iqInstsIssued                  22368138                       # Number of instructions issued
system.cpu.iq.iqSquashedInstsIssued               837                       # Number of squashed instructions issued
system.cpu.iq.iqSquashedInstsExamined          108321                       # Number of squashed instructions iterated over during squash; mainly for profiling
system.cpu.iq.iqSquashedOperandsExamined       150451                       # Number of squashed operands that are examined and possibly removed from graph
system.cpu.iq.iqSquashedNonSpecRemoved             48                       # Number of squashed non-spec instructions that were removed
system.cpu.iq.issued_per_cycle::samples       7994313                       # Number of insts issued each cycle
system.cpu.iq.issued_per_cycle::mean         2.798006                       # Number of insts issued each cycle
system.cpu.iq.issued_per_cycle::stdev        2.077260                       # Number of insts issued each cycle
system.cpu.iq.issued_per_cycle::underflows            0      0.00%      0.00% # Number of insts issued each cycle
system.cpu.iq.issued_per_cycle::0             1185971     14.84%     14.84% # Number of insts issued each cycle
system.cpu.iq.issued_per_cycle::1             1275005     15.95%     30.78% # Number of insts issued each cycle
system.cpu.iq.issued_per_cycle::2             1505542     18.83%     49.62% # Number of insts issued each cycle
system.cpu.iq.issued_per_cycle::3             1244238     15.56%     65.18% # Number of insts issued each cycle
system.cpu.iq.issued_per_cycle::4             1135118     14.20%     79.38% # Number of insts issued each cycle
system.cpu.iq.issued_per_cycle::5              818246     10.24%     89.62% # Number of insts issued each cycle
system.cpu.iq.issued_per_cycle::6              347343      4.34%     93.96% # Number of insts issued each cycle
system.cpu.iq.issued_per_cycle::7              229225      2.87%     96.83% # Number of insts issued each cycle
system.cpu.iq.issued_per_cycle::8              253625      3.17%    100.00% # Number of insts issued each cycle
system.cpu.iq.issued_per_cycle::overflows            0      0.00%    100.00% # Number of insts issued each cycle
system.cpu.iq.issued_per_cycle::min_value            0                       # Number of insts issued each cycle
system.cpu.iq.issued_per_cycle::max_value            8                       # Number of insts issued each cycle
system.cpu.iq.issued_per_cycle::total         7994313                       # Number of insts issued each cycle
system.cpu.iq.fu_full::No_OpClass                   0      0.00%      0.00% # attempts to use FU when none available
system.cpu.iq.fu_full::IntAlu                   49676     62.87%     62.87% # attempts to use FU when none available
system.cpu.iq.fu_full::IntMult                      0      0.00%     62.87% # attempts to use FU when none available
system.cpu.iq.fu_full::IntDiv                       0      0.00%     62.87% # attempts to use FU when none available
system.cpu.iq.fu_full::FloatAdd                  1937      2.45%     65.32% # attempts to use FU when none available
system.cpu.iq.fu_full::FloatCmp                     0      0.00%     65.32% # attempts to use FU when none available
system.cpu.iq.fu_full::FloatCvt                     0      0.00%     65.32% # attempts to use FU when none available
system.cpu.iq.fu_full::FloatMult                    0      0.00%     65.32% # attempts to use FU when none available
system.cpu.iq.fu_full::FloatMultAcc                 0      0.00%     65.32% # attempts to use FU when none available
system.cpu.iq.fu_full::FloatDiv                     0      0.00%     65.32% # attempts to use FU when none available
system.cpu.iq.fu_full::FloatMisc                    0      0.00%     65.32% # attempts to use FU when none available
system.cpu.iq.fu_full::FloatSqrt                    0      0.00%     65.32% # attempts to use FU when none available
system.cpu.iq.fu_full::SimdAdd                      1      0.00%     65.32% # attempts to use FU when none available
system.cpu.iq.fu_full::SimdAddAcc                   0      0.00%     65.32% # attempts to use FU when none available
system.cpu.iq.fu_full::SimdAlu                     12      0.02%     65.33% # attempts to use FU when none available
system.cpu.iq.fu_full::SimdCmp                      0      0.00%     65.33% # attempts to use FU when none available
system.cpu.iq.fu_full::SimdCvt                     11      0.01%     65.35% # attempts to use FU when none available
system.cpu.iq.fu_full::SimdMisc                     2      0.00%     65.35% # attempts to use FU when none available
system.cpu.iq.fu_full::SimdMult                     0      0.00%     65.35% # attempts to use FU when none available
system.cpu.iq.fu_full::SimdMultAcc                  0      0.00%     65.35% # attempts to use FU when none available
system.cpu.iq.fu_full::SimdShift                    1      0.00%     65.35% # attempts to use FU when none available
system.cpu.iq.fu_full::SimdShiftAcc                 0      0.00%     65.35% # attempts to use FU when none available
system.cpu.iq.fu_full::SimdSqrt                     0      0.00%     65.35% # attempts to use FU when none available
system.cpu.iq.fu_full::SimdFloatAdd                 2      0.00%     65.35% # attempts to use FU when none available
system.cpu.iq.fu_full::SimdFloatAlu                 0      0.00%     65.35% # attempts to use FU when none available
system.cpu.iq.fu_full::SimdFloatCmp                 0      0.00%     65.35% # attempts to use FU when none available
system.cpu.iq.fu_full::SimdFloatCvt                 0      0.00%     65.35% # attempts to use FU when none available
system.cpu.iq.fu_full::SimdFloatDiv                 0      0.00%     65.35% # attempts to use FU when none available
system.cpu.iq.fu_full::SimdFloatMisc                0      0.00%     65.35% # attempts to use FU when none available
system.cpu.iq.fu_full::SimdFloatMult            26228     33.19%     98.54% # attempts to use FU when none available
system.cpu.iq.fu_full::SimdFloatMultAcc             0      0.00%     98.54% # attempts to use FU when none available
system.cpu.iq.fu_full::SimdFloatSqrt                0      0.00%     98.54% # attempts to use FU when none available
system.cpu.iq.fu_full::SimdAes                      0      0.00%     98.54% # attempts to use FU when none available
system.cpu.iq.fu_full::SimdAesMix                   0      0.00%     98.54% # attempts to use FU when none available
system.cpu.iq.fu_full::SimdSha1Hash                 0      0.00%     98.54% # attempts to use FU when none available
system.cpu.iq.fu_full::SimdSha1Hash2                0      0.00%     98.54% # attempts to use FU when none available
system.cpu.iq.fu_full::SimdSha256Hash               0      0.00%     98.54% # attempts to use FU when none available
system.cpu.iq.fu_full::SimdSha256Hash2              0      0.00%     98.54% # attempts to use FU when none available
system.cpu.iq.fu_full::SimdShaSigma2                0      0.00%     98.54% # attempts to use FU when none available
system.cpu.iq.fu_full::SimdShaSigma3                0      0.00%     98.54% # attempts to use FU when none available
system.cpu.iq.fu_full::MemRead                    650      0.82%     99.37% # attempts to use FU when none available
system.cpu.iq.fu_full::MemWrite                   413      0.52%     99.89% # attempts to use FU when none available
system.cpu.iq.fu_full::FloatMemRead                62      0.08%     99.97% # attempts to use FU when none available
system.cpu.iq.fu_full::FloatMemWrite               25      0.03%    100.00% # attempts to use FU when none available
system.cpu.iq.fu_full::IprAccess                    0      0.00%    100.00% # attempts to use FU when none available
system.cpu.iq.fu_full::InstPrefetch                 0      0.00%    100.00% # attempts to use FU when none available
system.cpu.iq.FU_type_0::No_OpClass             35521      0.16%      0.16% # Type of FU issued
system.cpu.iq.FU_type_0::IntAlu               7208502     32.23%     32.39% # Type of FU issued
system.cpu.iq.FU_type_0::IntMult                   24      0.00%     32.39% # Type of FU issued
system.cpu.iq.FU_type_0::IntDiv                  1157      0.01%     32.39% # Type of FU issued
system.cpu.iq.FU_type_0::FloatAdd             4196658     18.76%     51.15% # Type of FU issued
system.cpu.iq.FU_type_0::FloatCmp                   0      0.00%     51.15% # Type of FU issued
system.cpu.iq.FU_type_0::FloatCvt                   0      0.00%     51.15% # Type of FU issued
system.cpu.iq.FU_type_0::FloatMult                  0      0.00%     51.15% # Type of FU issued
system.cpu.iq.FU_type_0::FloatMultAcc               0      0.00%     51.15% # Type of FU issued
system.cpu.iq.FU_type_0::FloatDiv                   0      0.00%     51.15% # Type of FU issued
system.cpu.iq.FU_type_0::FloatMisc                  0      0.00%     51.15% # Type of FU issued
system.cpu.iq.FU_type_0::FloatSqrt                  0      0.00%     51.15% # Type of FU issued
system.cpu.iq.FU_type_0::SimdAdd                  381      0.00%     51.15% # Type of FU issued
system.cpu.iq.FU_type_0::SimdAddAcc                 0      0.00%     51.15% # Type of FU issued
system.cpu.iq.FU_type_0::SimdAlu                  782      0.00%     51.16% # Type of FU issued
system.cpu.iq.FU_type_0::SimdCmp                    6      0.00%     51.16% # Type of FU issued
system.cpu.iq.FU_type_0::SimdCvt                  959      0.00%     51.16% # Type of FU issued
system.cpu.iq.FU_type_0::SimdMisc                 601      0.00%     51.16% # Type of FU issued
system.cpu.iq.FU_type_0::SimdMult                   0      0.00%     51.16% # Type of FU issued
system.cpu.iq.FU_type_0::SimdMultAcc                0      0.00%     51.16% # Type of FU issued
system.cpu.iq.FU_type_0::SimdShift                187      0.00%     51.17% # Type of FU issued
system.cpu.iq.FU_type_0::SimdShiftAcc               0      0.00%     51.17% # Type of FU issued
system.cpu.iq.FU_type_0::SimdSqrt                   0      0.00%     51.17% # Type of FU issued
system.cpu.iq.FU_type_0::SimdFloatAdd         2097273      9.38%     60.54% # Type of FU issued
system.cpu.iq.FU_type_0::SimdFloatAlu               0      0.00%     60.54% # Type of FU issued
system.cpu.iq.FU_type_0::SimdFloatCmp               0      0.00%     60.54% # Type of FU issued
system.cpu.iq.FU_type_0::SimdFloatCvt               0      0.00%     60.54% # Type of FU issued
system.cpu.iq.FU_type_0::SimdFloatDiv               0      0.00%     60.54% # Type of FU issued
system.cpu.iq.FU_type_0::SimdFloatMisc              0      0.00%     60.54% # Type of FU issued
system.cpu.iq.FU_type_0::SimdFloatMult        2097362      9.38%     69.92% # Type of FU issued
system.cpu.iq.FU_type_0::SimdFloatMultAcc            0      0.00%     69.92% # Type of FU issued
system.cpu.iq.FU_type_0::SimdFloatSqrt              0      0.00%     69.92% # Type of FU issued
system.cpu.iq.FU_type_0::SimdAes                    0      0.00%     69.92% # Type of FU issued
system.cpu.iq.FU_type_0::SimdAesMix                 0      0.00%     69.92% # Type of FU issued
system.cpu.iq.FU_type_0::SimdSha1Hash               0      0.00%     69.92% # Type of FU issued
system.cpu.iq.FU_type_0::SimdSha1Hash2              0      0.00%     69.92% # Type of FU issued
system.cpu.iq.FU_type_0::SimdSha256Hash             0      0.00%     69.92% # Type of FU issued
system.cpu.iq.FU_type_0::SimdSha256Hash2            0      0.00%     69.92% # Type of FU issued
system.cpu.iq.FU_type_0::SimdShaSigma2              0      0.00%     69.92% # Type of FU issued
system.cpu.iq.FU_type_0::SimdShaSigma3              0      0.00%     69.92% # Type of FU issued
system.cpu.iq.FU_type_0::MemRead                62512      0.28%     70.20% # Type of FU issued
system.cpu.iq.FU_type_0::MemWrite               13428      0.06%     70.26% # Type of FU issued
system.cpu.iq.FU_type_0::FloatMemRead         4555139     20.36%     90.62% # Type of FU issued
system.cpu.iq.FU_type_0::FloatMemWrite        2097646      9.38%    100.00% # Type of FU issued
system.cpu.iq.FU_type_0::IprAccess                  0      0.00%    100.00% # Type of FU issued
system.cpu.iq.FU_type_0::InstPrefetch               0      0.00%    100.00% # Type of FU issued
system.cpu.iq.FU_type_0::total               22368138                       # Type of FU issued
system.cpu.iq.rate                           2.778041                       # Inst issue rate
system.cpu.iq.fu_busy_cnt                       79020                       # FU busy when requested
system.cpu.iq.fu_busy_rate                   0.003533                       # FU busy rate (busy events/executed inst)
system.cpu.iq.int_inst_queue_reads           22687975                       # Number of integer instruction queue reads
system.cpu.iq.int_inst_queue_writes           7452070                       # Number of integer instruction queue writes
system.cpu.iq.int_inst_queue_wakeup_accesses      7312119                       # Number of integer instruction queue wakeup accesses
system.cpu.iq.fp_inst_queue_reads            30122471                       # Number of floating instruction queue reads
system.cpu.iq.fp_inst_queue_writes           14964850                       # Number of floating instruction queue writes
system.cpu.iq.fp_inst_queue_wakeup_accesses     14949080                       # Number of floating instruction queue wakeup accesses
system.cpu.iq.vec_inst_queue_reads                  0                       # Number of vector instruction queue reads
system.cpu.iq.vec_inst_queue_writes                 0                       # Number of vector instruction queue writes
system.cpu.iq.vec_inst_queue_wakeup_accesses            0                       # Number of vector instruction queue wakeup accesses
system.cpu.iq.int_alu_accesses                7336299                       # Number of integer alu accesses
system.cpu.iq.fp_alu_accesses                15075338                       # Number of floating point alu accesses
system.cpu.iq.vec_alu_accesses                      0                       # Number of vector alu accesses
system.cpu.iew.lsq.thread0.forwLoads             2391                       # Number of loads that had data forwarded from stores
system.cpu.iew.lsq.thread0.invAddrLoads             0                       # Number of loads ignored due to an invalid address
system.cpu.iew.lsq.thread0.squashedLoads        15908                       # Number of loads squashed
system.cpu.iew.lsq.thread0.ignoredResponses           14                       # Number of memory responses ignored because the instruction is squashed
system.cpu.iew.lsq.thread0.memOrderViolation          199                       # Number of memory ordering violations
system.cpu.iew.lsq.thread0.squashedStores         7163                       # Number of stores squashed
system.cpu.iew.lsq.thread0.invAddrSwpfs             0                       # Number of software prefetches ignored due to an invalid address
system.cpu.iew.lsq.thread0.blockedLoads             0                       # Number of blocked loads due to partial load-store forwarding
system.cpu.iew.lsq.thread0.rescheduledLoads        95244                       # Number of loads that were rescheduled
system.cpu.iew.lsq.thread0.cacheBlocked          1403                       # Number of times an access to memory failed due to the cache being blocked
system.cpu.iew.iewIdleCycles                        0                       # Number of cycles IEW is idle
system.cpu.iew.iewSquashCycles                   3142                       # Number of cycles IEW is squashing
system.cpu.iew.iewBlockCycles                   80338                       # Number of cycles IEW is blocking
system.cpu.iew.iewUnblockCycles                 56404                       # Number of cycles IEW is unblocking
system.cpu.iew.iewDispatchedInsts            22308406                       # Number of instructions dispatched to IQ
system.cpu.iew.iewDispSquashedInsts               114                       # Number of squashed instructions skipped by dispatch
system.cpu.iew.iewDispLoadInsts               4525979                       # Number of dispatched load instructions
system.cpu.iew.iewDispStoreInsts              2114111                       # Number of dispatched store instructions
system.cpu.iew.iewDispNonSpecInsts                 55                       # Number of dispatched non-speculative instructions
system.cpu.iew.iewIQFullEvents                    822                       # Number of times the IQ has become full, causing a stall
system.cpu.iew.iewLSQFullEvents                 53941                       # Number of times the LSQ has become full, causing a stall
system.cpu.iew.memOrderViolationEvents            199                       # Number of memory order violations
system.cpu.iew.predictedTakenIncorrect            955                       # Number of branches that were predicted taken incorrectly
system.cpu.iew.predictedNotTakenIncorrect         2732                       # Number of branches that were predicted not taken incorrectly
system.cpu.iew.branchMispredicts                 3687                       # Number of branch mispredicts detected at execute
system.cpu.iew.iewExecutedInsts              22361435                       # Number of executed instructions
system.cpu.iew.iewExecLoadInsts               4616035                       # Number of load instructions executed
system.cpu.iew.iewExecSquashedInsts              6703                       # Number of squashed instructions skipped in execute
system.cpu.iew.exec_swp                             0                       # number of swp insts executed
system.cpu.iew.exec_nop                             0                       # number of nop insts executed
system.cpu.iew.exec_refs                      6726573                       # number of memory reference insts executed
system.cpu.iew.exec_branches                   313571                       # Number of branches executed
system.cpu.iew.exec_stores                    2110538                       # Number of stores executed
system.cpu.iew.exec_rate                     2.777208                       # Inst execution rate
system.cpu.iew.wb_sent                       22262671                       # cumulative count of insts sent to commit
system.cpu.iew.wb_count                      22261199                       # cumulative count of insts written-back
system.cpu.iew.wb_producers                  13495842                       # num instructions producing a value
system.cpu.iew.wb_consumers                  19194365                       # num instructions consuming a value
system.cpu.iew.wb_rate                       2.764759                       # insts written-back per cycle
system.cpu.iew.wb_fanout                     0.703115                       # average fanout of values written-back
system.cpu.commit.commitSquashedInsts          108426                       # The number of squashed insts skipped by commit
system.cpu.commit.commitNonSpecStalls              27                       # The number of times commit has been forced to stall to communicate backwards
system.cpu.commit.branchMispredicts              2975                       # The number of times a branch was mispredicted
system.cpu.commit.committed_per_cycle::samples      7978172                       # Number of insts commited each cycle
system.cpu.commit.committed_per_cycle::mean     2.782603                       # Number of insts commited each cycle
system.cpu.commit.committed_per_cycle::stdev     3.330342                       # Number of insts commited each cycle
system.cpu.commit.committed_per_cycle::underflows            0      0.00%      0.00% # Number of insts commited each cycle
system.cpu.commit.committed_per_cycle::0      2697532     33.81%     33.81% # Number of insts commited each cycle
system.cpu.commit.committed_per_cycle::1      2556655     32.05%     65.86% # Number of insts commited each cycle
system.cpu.commit.committed_per_cycle::2        43788      0.55%     66.41% # Number of insts commited each cycle
system.cpu.commit.committed_per_cycle::3        13601      0.17%     66.58% # Number of insts commited each cycle
system.cpu.commit.committed_per_cycle::4       300908      3.77%     70.35% # Number of insts commited each cycle
system.cpu.commit.committed_per_cycle::5        31551      0.40%     70.74% # Number of insts commited each cycle
system.cpu.commit.committed_per_cycle::6       105261      1.32%     72.06% # Number of insts commited each cycle
system.cpu.commit.committed_per_cycle::7       308911      3.87%     75.93% # Number of insts commited each cycle
system.cpu.commit.committed_per_cycle::8      1919965     24.07%    100.00% # Number of insts commited each cycle
system.cpu.commit.committed_per_cycle::overflows            0      0.00%    100.00% # Number of insts commited each cycle
system.cpu.commit.committed_per_cycle::min_value            0                       # Number of insts commited each cycle
system.cpu.commit.committed_per_cycle::max_value            8                       # Number of insts commited each cycle
system.cpu.commit.committed_per_cycle::total      7978172                       # Number of insts commited each cycle
system.cpu.commit.committedInsts             14399449                       # Number of instructions committed
system.cpu.commit.committedOps               22200084                       # Number of ops (including micro ops) committed
system.cpu.commit.swp_count                         0                       # Number of s/w prefetches committed
system.cpu.commit.refs                        6617019                       # Number of memory references committed
system.cpu.commit.loads                       4510071                       # Number of loads committed
system.cpu.commit.membars                           0                       # Number of memory barriers committed
system.cpu.commit.branches                     310224                       # Number of branches committed
system.cpu.commit.vec_insts                         0                       # Number of committed Vector instructions.
system.cpu.commit.fp_insts                   14945212                       # Number of committed floating point instructions.
system.cpu.commit.int_insts                  13775566                       # Number of committed integer instructions.
system.cpu.commit.function_calls                  588                       # Number of function calls committed.
system.cpu.commit.op_class_0::No_OpClass        34178      0.15%      0.15% # Class of committed instruction
system.cpu.commit.op_class_0::IntAlu          7157226     32.24%     32.39% # Class of committed instruction
system.cpu.commit.op_class_0::IntMult              11      0.00%     32.39% # Class of committed instruction
system.cpu.commit.op_class_0::IntDiv             1083      0.00%     32.40% # Class of committed instruction
system.cpu.commit.op_class_0::FloatAdd        4194322     18.89%     51.29% # Class of committed instruction
system.cpu.commit.op_class_0::FloatCmp              0      0.00%     51.29% # Class of committed instruction
system.cpu.commit.op_class_0::FloatCvt              0      0.00%     51.29% # Class of committed instruction
system.cpu.commit.op_class_0::FloatMult             0      0.00%     51.29% # Class of committed instruction
system.cpu.commit.op_class_0::FloatMultAcc            0      0.00%     51.29% # Class of committed instruction
system.cpu.commit.op_class_0::FloatDiv              0      0.00%     51.29% # Class of committed instruction
system.cpu.commit.op_class_0::FloatMisc             0      0.00%     51.29% # Class of committed instruction
system.cpu.commit.op_class_0::FloatSqrt             0      0.00%     51.29% # Class of committed instruction
system.cpu.commit.op_class_0::SimdAdd             284      0.00%     51.29% # Class of committed instruction
system.cpu.commit.op_class_0::SimdAddAcc            0      0.00%     51.29% # Class of committed instruction
system.cpu.commit.op_class_0::SimdAlu             403      0.00%     51.29% # Class of committed instruction
system.cpu.commit.op_class_0::SimdCmp               6      0.00%     51.29% # Class of committed instruction
system.cpu.commit.op_class_0::SimdCvt             664      0.00%     51.30% # Class of committed instruction
system.cpu.commit.op_class_0::SimdMisc            482      0.00%     51.30% # Class of committed instruction
system.cpu.commit.op_class_0::SimdMult              0      0.00%     51.30% # Class of committed instruction
system.cpu.commit.op_class_0::SimdMultAcc            0      0.00%     51.30% # Class of committed instruction
system.cpu.commit.op_class_0::SimdShift           102      0.00%     51.30% # Class of committed instruction
system.cpu.commit.op_class_0::SimdShiftAcc            0      0.00%     51.30% # Class of committed instruction
system.cpu.commit.op_class_0::SimdSqrt              0      0.00%     51.30% # Class of committed instruction
system.cpu.commit.op_class_0::SimdFloatAdd      2097152      9.45%     60.75% # Class of committed instruction
system.cpu.commit.op_class_0::SimdFloatAlu            0      0.00%     60.75% # Class of committed instruction
system.cpu.commit.op_class_0::SimdFloatCmp            0      0.00%     60.75% # Class of committed instruction
system.cpu.commit.op_class_0::SimdFloatCvt            0      0.00%     60.75% # Class of committed instruction
system.cpu.commit.op_class_0::SimdFloatDiv            0      0.00%     60.75% # Class of committed instruction
system.cpu.commit.op_class_0::SimdFloatMisc            0      0.00%     60.75% # Class of committed instruction
system.cpu.commit.op_class_0::SimdFloatMult      2097152      9.45%     70.19% # Class of committed instruction
system.cpu.commit.op_class_0::SimdFloatMultAcc            0      0.00%     70.19% # Class of committed instruction
system.cpu.commit.op_class_0::SimdFloatSqrt            0      0.00%     70.19% # Class of committed instruction
system.cpu.commit.op_class_0::SimdAes               0      0.00%     70.19% # Class of committed instruction
system.cpu.commit.op_class_0::SimdAesMix            0      0.00%     70.19% # Class of committed instruction
system.cpu.commit.op_class_0::SimdSha1Hash            0      0.00%     70.19% # Class of committed instruction
system.cpu.commit.op_class_0::SimdSha1Hash2            0      0.00%     70.19% # Class of committed instruction
system.cpu.commit.op_class_0::SimdSha256Hash            0      0.00%     70.19% # Class of committed instruction
system.cpu.commit.op_class_0::SimdSha256Hash2            0      0.00%     70.19% # Class of committed instruction
system.cpu.commit.op_class_0::SimdShaSigma2            0      0.00%     70.19% # Class of committed instruction
system.cpu.commit.op_class_0::SimdShaSigma3            0      0.00%     70.19% # Class of committed instruction
system.cpu.commit.op_class_0::MemRead           52961      0.24%     70.43% # Class of committed instruction
system.cpu.commit.op_class_0::MemWrite           9460      0.04%     70.47% # Class of committed instruction
system.cpu.commit.op_class_0::FloatMemRead      4457110     20.08%     90.55% # Class of committed instruction
system.cpu.commit.op_class_0::FloatMemWrite      2097488      9.45%    100.00% # Class of committed instruction
system.cpu.commit.op_class_0::IprAccess             0      0.00%    100.00% # Class of committed instruction
system.cpu.commit.op_class_0::InstPrefetch            0      0.00%    100.00% # Class of committed instruction
system.cpu.commit.op_class_0::total          22200084                       # Class of committed instruction
system.cpu.commit.bw_lim_events               1919965                       # number cycles where commit BW limit reached
system.cpu.rob.rob_reads                     28366717                       # The number of ROB reads
system.cpu.rob.rob_writes                    44633331                       # The number of ROB writes
system.cpu.timesIdled                             511                       # Number of times that the entire CPU went into an idle state and unscheduled itself
system.cpu.idleCycles                           57455                       # Total number of cycles that the CPU has spent unscheduled due to idling
system.cpu.committedInsts                    14399449                       # Number of Instructions Simulated
system.cpu.committedOps                      22200084                       # Number of Ops (including micro ops) Simulated
system.cpu.cpi                               0.559172                       # CPI: Cycles Per Instruction
system.cpu.cpi_total                         0.559172                       # CPI: Total CPI of All Threads
system.cpu.ipc                               1.788359                       # IPC: Instructions Per Cycle
system.cpu.ipc_total                         1.788359                       # IPC: Total IPC of All Threads
system.cpu.int_regfile_reads                 24975621                       # number of integer regfile reads
system.cpu.int_regfile_writes                 6954506                       # number of integer regfile writes
system.cpu.fp_regfile_reads                  14688247                       # number of floating regfile reads
system.cpu.fp_regfile_writes                 12851155                       # number of floating regfile writes
system.cpu.cc_regfile_reads                   1576830                       # number of cc regfile reads
system.cpu.cc_regfile_writes                  1773974                       # number of cc regfile writes
system.cpu.misc_regfile_reads                 7358400                       # number of misc regfile reads
system.cpu.dcache.tags.pwrStateResidencyTicks::UNDEFINED   4025883500                       # Cumulative time (in ticks) in various power states
system.cpu.dcache.tags.tagsinuse          1010.812604                       # Cycle average of tags in use
system.cpu.dcache.tags.total_refs             6841303                       # Total number of references to valid blocks.
system.cpu.dcache.tags.sampled_refs             42853                       # Sample count of references to valid blocks.
system.cpu.dcache.tags.avg_refs            159.645836                       # Average number of references to valid blocks.
system.cpu.dcache.tags.warmup_cycle            175000                       # Cycle when the warmup percentage was hit.
system.cpu.dcache.tags.occ_blocks::.cpu.data  1010.812604                       # Average occupied blocks per requestor
system.cpu.dcache.tags.occ_percent::.cpu.data     0.987122                       # Average percentage of cache occupancy
system.cpu.dcache.tags.occ_percent::total     0.987122                       # Average percentage of cache occupancy
system.cpu.dcache.tags.occ_task_id_blocks::1024         1024                       # Occupied blocks per task id
system.cpu.dcache.tags.age_task_id_blocks_1024::0          184                       # Occupied blocks per task id
system.cpu.dcache.tags.age_task_id_blocks_1024::1          121                       # Occupied blocks per task id
system.cpu.dcache.tags.age_task_id_blocks_1024::2          254                       # Occupied blocks per task id
system.cpu.dcache.tags.age_task_id_blocks_1024::3          465                       # Occupied blocks per task id
system.cpu.dcache.tags.occ_task_id_percent::1024            1                       # Percentage of cache occupancy per task id
system.cpu.dcache.tags.tag_accesses          13814717                       # Number of tag accesses
system.cpu.dcache.tags.data_accesses         13814717                       # Number of data accesses
system.cpu.dcache.pwrStateResidencyTicks::UNDEFINED   4025883500                       # Cumulative time (in ticks) in various power states
system.cpu.dcache.ReadReq_hits::.cpu.data      4694470                       # number of ReadReq hits
system.cpu.dcache.ReadReq_hits::total         4694470                       # number of ReadReq hits
system.cpu.dcache.WriteReq_hits::.cpu.data      2103980                       # number of WriteReq hits
system.cpu.dcache.WriteReq_hits::total        2103980                       # number of WriteReq hits
system.cpu.dcache.demand_hits::.cpu.data      6798450                       # number of demand (read+write) hits
system.cpu.dcache.demand_hits::total          6798450                       # number of demand (read+write) hits
system.cpu.dcache.overall_hits::.cpu.data      6798450                       # number of overall hits
system.cpu.dcache.overall_hits::total         6798450                       # number of overall hits
system.cpu.dcache.ReadReq_misses::.cpu.data        84514                       # number of ReadReq misses
system.cpu.dcache.ReadReq_misses::total         84514                       # number of ReadReq misses
system.cpu.dcache.WriteReq_misses::.cpu.data         2968                       # number of WriteReq misses
system.cpu.dcache.WriteReq_misses::total         2968                       # number of WriteReq misses
system.cpu.dcache.demand_misses::.cpu.data        87482                       # number of demand (read+write) misses
system.cpu.dcache.demand_misses::total          87482                       # number of demand (read+write) misses
system.cpu.dcache.overall_misses::.cpu.data        87482                       # number of overall misses
system.cpu.dcache.overall_misses::total         87482                       # number of overall misses
system.cpu.dcache.ReadReq_miss_latency::.cpu.data   1615679000                       # number of ReadReq miss cycles
system.cpu.dcache.ReadReq_miss_latency::total   1615679000                       # number of ReadReq miss cycles
system.cpu.dcache.WriteReq_miss_latency::.cpu.data     68188496                       # number of WriteReq miss cycles
system.cpu.dcache.WriteReq_miss_latency::total     68188496                       # number of WriteReq miss cycles
system.cpu.dcache.demand_miss_latency::.cpu.data   1683867496                       # number of demand (read+write) miss cycles
system.cpu.dcache.demand_miss_latency::total   1683867496                       # number of demand (read+write) miss cycles
system.cpu.dcache.overall_miss_latency::.cpu.data   1683867496                       # number of overall miss cycles
system.cpu.dcache.overall_miss_latency::total   1683867496                       # number of overall miss cycles
system.cpu.dcache.ReadReq_accesses::.cpu.data      4778984                       # number of ReadReq accesses(hits+misses)
system.cpu.dcache.ReadReq_accesses::total      4778984                       # number of ReadReq accesses(hits+misses)
[...]
system.l2.WritebackClean_accesses::total           88                       # number of WritebackClean accesses(hits+misses)
system.l2.ReadExReq_accesses::.cpu.data          2629                       # number of ReadExReq accesses(hits+misses)
system.l2.ReadExReq_accesses::total              2629                       # number of ReadExReq accesses(hits+misses)
system.l2.ReadCleanReq_accesses::.cpu.inst          815                       # number of ReadCleanReq accesses(hits+misses)
system.l2.ReadCleanReq_accesses::total            815                       # number of ReadCleanReq accesses(hits+misses)
system.l2.ReadSharedReq_accesses::.cpu.data        40224                       # number of ReadSharedReq accesses(hits+misses)
system.l2.ReadSharedReq_accesses::total         40224                       # number of ReadSharedReq accesses(hits+misses)
system.l2.demand_accesses::.cpu.inst              815                       # number of demand (read+write) accesses
system.l2.demand_accesses::.cpu.data            42853                       # number of demand (read+write) accesses
system.l2.demand_accesses::total                43668                       # number of demand (read+write) accesses
system.l2.overall_accesses::.cpu.inst             815                       # number of overall (read+write) accesses
system.l2.overall_accesses::.cpu.data           42853                       # number of overall (read+write) accesses
system.l2.overall_accesses::total               43668                       # number of overall (read+write) accesses
system.l2.ReadExReq_miss_rate::.cpu.data     0.156714                       # miss rate for ReadExReq accesses
system.l2.ReadExReq_miss_rate::total         0.156714                       # miss rate for ReadExReq accesses
system.l2.ReadCleanReq_miss_rate::.cpu.inst     0.982822                       # miss rate for ReadCleanReq accesses
system.l2.ReadCleanReq_miss_rate::total      0.982822                       # miss rate for ReadCleanReq accesses
system.l2.ReadSharedReq_miss_rate::.cpu.data     0.103172                       # miss rate for ReadSharedReq accesses
system.l2.ReadSharedReq_miss_rate::total     0.103172                       # miss rate for ReadSharedReq accesses
system.l2.demand_miss_rate::.cpu.inst        0.982822                       # miss rate for demand accesses
system.l2.demand_miss_rate::.cpu.data        0.106457                       # miss rate for demand accesses
system.l2.demand_miss_rate::total            0.122813                       # miss rate for demand accesses
system.l2.overall_miss_rate::.cpu.inst       0.982822                       # miss rate for overall accesses
system.l2.overall_miss_rate::.cpu.data       0.106457                       # miss rate for overall accesses
system.l2.overall_miss_rate::total           0.122813                       # miss rate for overall accesses
system.l2.ReadExReq_avg_miss_latency::.cpu.data 76684.466019                       # average ReadExReq miss latency
system.l2.ReadExReq_avg_miss_latency::total 76684.466019                       # average ReadExReq miss latency
system.l2.ReadCleanReq_avg_miss_latency::.cpu.inst 77529.962547                       # average ReadCleanReq miss latency
system.l2.ReadCleanReq_avg_miss_latency::total 77529.962547                       # average ReadCleanReq miss latency
system.l2.ReadSharedReq_avg_miss_latency::.cpu.data 98849.518072                       # average ReadSharedReq miss latency
system.l2.ReadSharedReq_avg_miss_latency::total 98849.518072                       # average ReadSharedReq miss latency
system.l2.demand_avg_miss_latency::.cpu.inst 77529.962547                       # average overall miss latency
system.l2.demand_avg_miss_latency::.cpu.data 96847.764139                       # average overall miss latency
system.l2.demand_avg_miss_latency::total 93962.520977                       # average overall miss latency
system.l2.overall_avg_miss_latency::.cpu.inst 77529.962547                       # average overall miss latency
system.l2.overall_avg_miss_latency::.cpu.data 96847.764139                       # average overall miss latency
system.l2.overall_avg_miss_latency::total 93962.520977                       # average overall miss latency
system.l2.blocked_cycles::no_mshrs                  0                       # number of cycles access was blocked
system.l2.blocked_cycles::no_targets                0                       # number of cycles access was blocked
system.l2.blocked::no_mshrs                         0                       # number of cycles access was blocked
system.l2.blocked::no_targets                       0                       # number of cycles access was blocked
system.l2.avg_blocked_cycles::no_mshrs            nan                       # average number of cycles each access was blocked
system.l2.avg_blocked_cycles::no_targets          nan                       # average number of cycles each access was blocked
system.l2.ReadExReq_mshr_misses::.cpu.data          412                       # number of ReadExReq MSHR misses
system.l2.ReadExReq_mshr_misses::total            412                       # number of ReadExReq MSHR misses
system.l2.ReadCleanReq_mshr_misses::.cpu.inst          801                       # number of ReadCleanReq MSHR misses
system.l2.ReadCleanReq_mshr_misses::total          801                       # number of ReadCleanReq MSHR misses
system.l2.ReadSharedReq_mshr_misses::.cpu.data         4150                       # number of ReadSharedReq MSHR misses
system.l2.ReadSharedReq_mshr_misses::total         4150                       # number of ReadSharedReq MSHR misses
system.l2.demand_mshr_misses::.cpu.inst           801                       # number of demand (read+write) MSHR misses
system.l2.demand_mshr_misses::.cpu.data          4562                       # number of demand (read+write) MSHR misses
system.l2.demand_mshr_misses::total              5363                       # number of demand (read+write) MSHR misses
system.l2.overall_mshr_misses::.cpu.inst          801                       # number of overall MSHR misses
system.l2.overall_mshr_misses::.cpu.data         4562                       # number of overall MSHR misses
system.l2.overall_mshr_misses::total             5363                       # number of overall MSHR misses
system.l2.ReadExReq_mshr_miss_latency::.cpu.data     27474000                       # number of ReadExReq MSHR miss cycles
system.l2.ReadExReq_mshr_miss_latency::total     27474000                       # number of ReadExReq MSHR miss cycles
system.l2.ReadCleanReq_mshr_miss_latency::.cpu.inst     54091500                       # number of ReadCleanReq MSHR miss cycles
system.l2.ReadCleanReq_mshr_miss_latency::total     54091500                       # number of ReadCleanReq MSHR miss cycles
system.l2.ReadSharedReq_mshr_miss_latency::.cpu.data    368725500                       # number of ReadSharedReq MSHR miss cycles
system.l2.ReadSharedReq_mshr_miss_latency::total    368725500                       # number of ReadSharedReq MSHR miss cycles
system.l2.demand_mshr_miss_latency::.cpu.inst     54091500                       # number of demand (read+write) MSHR miss cycles
system.l2.demand_mshr_miss_latency::.cpu.data    396199500                       # number of demand (read+write) MSHR miss cycles
system.l2.demand_mshr_miss_latency::total    450291000                       # number of demand (read+write) MSHR miss cycles
system.l2.overall_mshr_miss_latency::.cpu.inst     54091500                       # number of overall MSHR miss cycles
system.l2.overall_mshr_miss_latency::.cpu.data    396199500                       # number of overall MSHR miss cycles
system.l2.overall_mshr_miss_latency::total    450291000                       # number of overall MSHR miss cycles
system.l2.ReadExReq_mshr_miss_rate::.cpu.data     0.156714                       # mshr miss rate for ReadExReq accesses
system.l2.ReadExReq_mshr_miss_rate::total     0.156714                       # mshr miss rate for ReadExReq accesses
system.l2.ReadCleanReq_mshr_miss_rate::.cpu.inst     0.982822                       # mshr miss rate for ReadCleanReq accesses
system.l2.ReadCleanReq_mshr_miss_rate::total     0.982822                       # mshr miss rate for ReadCleanReq accesses
system.l2.ReadSharedReq_mshr_miss_rate::.cpu.data     0.103172                       # mshr miss rate for ReadSharedReq accesses
system.l2.ReadSharedReq_mshr_miss_rate::total     0.103172                       # mshr miss rate for ReadSharedReq accesses
system.l2.demand_mshr_miss_rate::.cpu.inst     0.982822                       # mshr miss rate for demand accesses
system.l2.demand_mshr_miss_rate::.cpu.data     0.106457                       # mshr miss rate for demand accesses
system.l2.demand_mshr_miss_rate::total       0.122813                       # mshr miss rate for demand accesses
system.l2.overall_mshr_miss_rate::.cpu.inst     0.982822                       # mshr miss rate for overall accesses
system.l2.overall_mshr_miss_rate::.cpu.data     0.106457                       # mshr miss rate for overall accesses
system.l2.overall_mshr_miss_rate::total      0.122813                       # mshr miss rate for overall accesses
system.l2.ReadExReq_avg_mshr_miss_latency::.cpu.data 66684.466019                       # average ReadExReq mshr miss latency
system.l2.ReadExReq_avg_mshr_miss_latency::total 66684.466019                       # average ReadExReq mshr miss latency
system.l2.ReadCleanReq_avg_mshr_miss_latency::.cpu.inst 67529.962547                       # average ReadCleanReq mshr miss latency
system.l2.ReadCleanReq_avg_mshr_miss_latency::total 67529.962547                       # average ReadCleanReq mshr miss latency
system.l2.ReadSharedReq_avg_mshr_miss_latency::.cpu.data 88849.518072                       # average ReadSharedReq mshr miss latency
system.l2.ReadSharedReq_avg_mshr_miss_latency::total 88849.518072                       # average ReadSharedReq mshr miss latency
system.l2.demand_avg_mshr_miss_latency::.cpu.inst 67529.962547                       # average overall mshr miss latency
system.l2.demand_avg_mshr_miss_latency::.cpu.data 86847.764139                       # average overall mshr miss latency
system.l2.demand_avg_mshr_miss_latency::total 83962.520977                       # average overall mshr miss latency
system.l2.overall_avg_mshr_miss_latency::.cpu.inst 67529.962547                       # average overall mshr miss latency
system.l2.overall_avg_mshr_miss_latency::.cpu.data 86847.764139                       # average overall mshr miss latency
system.l2.overall_avg_mshr_miss_latency::total 83962.520977                       # average overall mshr miss latency
system.l2.replacements                              0                       # number of replacements
system.membus.snoop_filter.tot_requests          5363                       # Total number of requests made to the snoop filter.
system.membus.snoop_filter.hit_single_requests            0                       # Number of requests hitting in the snoop filter with a single holder of the requested data.
system.membus.snoop_filter.hit_multi_requests            0                       # Number of requests hitting in the snoop filter with multiple (>1) holders of the requested data.
system.membus.snoop_filter.tot_snoops               0                       # Total number of snoops made to the snoop filter.
system.membus.snoop_filter.hit_single_snoops            0                       # Number of snoops hitting in the snoop filter with a single holder of the requested data.
system.membus.snoop_filter.hit_multi_snoops            0                       # Number of snoops hitting in the snoop filter with multiple (>1) holders of the requested data.
system.membus.pwrStateResidencyTicks::UNDEFINED   4025883500                       # Cumulative time (in ticks) in various power states
system.membus.trans_dist::ReadResp               4951                       # Transaction distribution
system.membus.trans_dist::ReadExReq               412                       # Transaction distribution
system.membus.trans_dist::ReadExResp              412                       # Transaction distribution
system.membus.trans_dist::ReadSharedReq          4951                       # Transaction distribution
system.membus.pkt_count_system.l2.mem_side::system.mem_ctrls.port        10726                       # Packet count per connected master and slave (bytes)
system.membus.pkt_count_system.l2.mem_side::total        10726                       # Packet count per connected master and slave (bytes)
system.membus.pkt_count::total                  10726                       # Packet count per connected master and slave (bytes)
system.membus.pkt_size_system.l2.mem_side::system.mem_ctrls.port       343232                       # Cumulative packet size per connected master and slave (bytes)
system.membus.pkt_size_system.l2.mem_side::total       343232                       # Cumulative packet size per connected master and slave (bytes)
system.membus.pkt_size::total                  343232                       # Cumulative packet size per connected master and slave (bytes)
system.membus.snoops                                0                       # Total snoops (count)
system.membus.snoopTraffic                          0                       # Total snoop traffic (bytes)
system.membus.snoop_fanout::samples              5363                       # Request fanout histogram
system.membus.snoop_fanout::mean                    0                       # Request fanout histogram
system.membus.snoop_fanout::stdev                   0                       # Request fanout histogram
system.membus.snoop_fanout::underflows              0      0.00%      0.00% # Request fanout histogram
system.membus.snoop_fanout::0                    5363    100.00%    100.00% # Request fanout histogram
system.membus.snoop_fanout::1                       0      0.00%    100.00% # Request fanout histogram
system.membus.snoop_fanout::overflows               0      0.00%    100.00% # Request fanout histogram
system.membus.snoop_fanout::min_value               0                       # Request fanout histogram
system.membus.snoop_fanout::max_value               0                       # Request fanout histogram
system.membus.snoop_fanout::total                5363                       # Request fanout histogram
system.membus.reqLayer2.occupancy             2681500                       # Layer occupancy (ticks)
system.membus.reqLayer2.utilization               0.1                       # Layer utilization (%)
system.membus.respLayer1.occupancy           14618500                       # Layer occupancy (ticks)
system.membus.respLayer1.utilization              0.4                       # Layer utilization (%)
system.tol2bus.snoop_filter.tot_requests        85586                       # Total number of requests made to the snoop filter.
system.tol2bus.snoop_filter.hit_single_requests        41918                       # Number of requests hitting in the snoop filter with a single holder of the requested data.
system.tol2bus.snoop_filter.hit_multi_requests            9                       # Number of requests hitting in the snoop filter with multiple (>1) holders of the requested data.
system.tol2bus.snoop_filter.tot_snoops              0                       # Total number of snoops made to the snoop filter.
system.tol2bus.snoop_filter.hit_single_snoops            0                       # Number of snoops hitting in the snoop filter with a single holder of the requested data.
system.tol2bus.snoop_filter.hit_multi_snoops            0                       # Number of snoops hitting in the snoop filter with multiple (>1) holders of the requested data.
system.tol2bus.pwrStateResidencyTicks::UNDEFINED   4025883500                       # Cumulative time (in ticks) in various power states
system.tol2bus.trans_dist::ReadResp             41039                       # Transaction distribution
system.tol2bus.trans_dist::WritebackDirty        15895                       # Transaction distribution
system.tol2bus.trans_dist::WritebackClean           89                       # Transaction distribution
system.tol2bus.trans_dist::CleanEvict           25934                       # Transaction distribution
system.tol2bus.trans_dist::ReadExReq             2629                       # Transaction distribution
system.tol2bus.trans_dist::ReadExResp            2629                       # Transaction distribution
system.tol2bus.trans_dist::ReadCleanReq           815                       # Transaction distribution
system.tol2bus.trans_dist::ReadSharedReq        40224                       # Transaction distribution
system.tol2bus.pkt_count_system.cpu.icache.mem_side::system.l2.cpu_side         1719                       # Packet count per connected master and slave (bytes)
system.tol2bus.pkt_count_system.cpu.dcache.mem_side::system.l2.cpu_side       127535                       # Packet count per connected master and slave (bytes)
system.tol2bus.pkt_count::total                129254                       # Packet count per connected master and slave (bytes)
system.tol2bus.pkt_size_system.cpu.icache.mem_side::system.l2.cpu_side        57856                       # Cumulative packet size per connected master and slave (bytes)
system.tol2bus.pkt_size_system.cpu.dcache.mem_side::system.l2.cpu_side      3759872                       # Cumulative packet size per connected master and slave (bytes)
system.tol2bus.pkt_size::total                3817728                       # Cumulative packet size per connected master and slave (bytes)
system.tol2bus.snoops                               0                       # Total snoops (count)
system.tol2bus.snoopTraffic                         0                       # Total snoop traffic (bytes)
system.tol2bus.snoop_fanout::samples            43668                       # Request fanout histogram
system.tol2bus.snoop_fanout::mean            0.000206                       # Request fanout histogram
system.tol2bus.snoop_fanout::stdev           0.014355                       # Request fanout histogram
system.tol2bus.snoop_fanout::underflows             0      0.00%      0.00% # Request fanout histogram
system.tol2bus.snoop_fanout::0                  43659     99.98%     99.98% # Request fanout histogram
system.tol2bus.snoop_fanout::1                      9      0.02%    100.00% # Request fanout histogram
system.tol2bus.snoop_fanout::2                      0      0.00%    100.00% # Request fanout histogram
system.tol2bus.snoop_fanout::3                      0      0.00%    100.00% # Request fanout histogram
system.tol2bus.snoop_fanout::4                      0      0.00%    100.00% # Request fanout histogram
system.tol2bus.snoop_fanout::overflows              0      0.00%    100.00% # Request fanout histogram
system.tol2bus.snoop_fanout::min_value              0                       # Request fanout histogram
system.tol2bus.snoop_fanout::max_value              1                       # Request fanout histogram
system.tol2bus.snoop_fanout::total              43668                       # Request fanout histogram
system.tol2bus.reqLayer0.occupancy           58777000                       # Layer occupancy (ticks)
system.tol2bus.reqLayer0.utilization              1.5                       # Layer utilization (%)
system.tol2bus.respLayer0.occupancy           1222500                       # Layer occupancy (ticks)
system.tol2bus.respLayer0.utilization             0.0                       # Layer utilization (%)
system.tol2bus.respLayer1.occupancy          64279500                       # Layer occupancy (ticks)
system.tol2bus.respLayer1.utilization             1.6                       # Layer utilization (%)

---------- End Simulation Statistics   ----------
