
---------- Begin Simulation Statistics ----------
sim_seconds                                  0.002970                       # Number of seconds simulated
sim_ticks                                  2969654085                       # Number of ticks simulated
final_tick                                 2969654085                       # Number of ticks from beginning of simulation (restored from checkpoints and never reset)
sim_freq                                 1000000000000                       # Frequency of simulated ticks
host_inst_rate                                  83046                       # Simulator instruction rate (inst/s)
host_op_rate                                   128696                       # Simulator op (including micro ops) rate (op/s)
host_tick_rate                               44213101                       # Simulator tick rate (ticks/s)
host_mem_usage                                 671472                       # Number of bytes of host memory used
host_seconds                                    67.17                       # Real time elapsed on the host
sim_insts                                     5577901                       # Number of instructions simulated
sim_ops                                       8644099                       # Number of ops (including micro ops) simulated
system.voltage_domain.voltage                       1                       # Voltage in Volts
system.clk_domain.clock                           667                       # Clock period in ticks
system.mem_ctrls.pwrStateResidencyTicks::UNDEFINED   2969654085                       # Cumulative time (in ticks) in various power states
system.mem_ctrls.bytes_read::.cpu.inst          51904                       # Number of bytes read from this memory
system.mem_ctrls.bytes_read::.cpu.data        2197824                       # Number of bytes read from this memory
system.mem_ctrls.bytes_read::total            2249728                       # Number of bytes read from this memory
system.mem_ctrls.bytes_inst_read::.cpu.inst        51904                       # Number of instructions bytes read from this memory
system.mem_ctrls.bytes_inst_read::total         51904                       # Number of instructions bytes read from this memory
system.mem_ctrls.bytes_written::.writebacks        30208                       # Number of bytes written to this memory
system.mem_ctrls.bytes_written::total           30208                       # Number of bytes written to this memory
system.mem_ctrls.num_reads::.cpu.inst             811                       # Number of read requests responded to by this memory
system.mem_ctrls.num_reads::.cpu.data           34341                       # Number of read requests responded to by this memory
system.mem_ctrls.num_reads::total               35152                       # Number of read requests responded to by this memory
system.mem_ctrls.num_writes::.writebacks          472                       # Number of write requests responded to by this memory
system.mem_ctrls.num_writes::total                472                       # Number of write requests responded to by this memory
system.mem_ctrls.bw_read::.cpu.inst          17478130                       # Total read bandwidth from this memory (bytes/s)
system.mem_ctrls.bw_read::.cpu.data         740094279                       # Total read bandwidth from this memory (bytes/s)
system.mem_ctrls.bw_read::total             757572409                       # Total read bandwidth from this memory (bytes/s)
system.mem_ctrls.bw_inst_read::.cpu.inst     17478130                       # Instruction read bandwidth from this memory (bytes/s)
system.mem_ctrls.bw_inst_read::total         17478130                       # Instruction read bandwidth from this memory (bytes/s)
system.mem_ctrls.bw_write::.writebacks       10172229                       # Write bandwidth from this memory (bytes/s)
system.mem_ctrls.bw_write::total             10172229                       # Write bandwidth from this memory (bytes/s)
system.mem_ctrls.bw_total::.writebacks       10172229                       # Total bandwidth to/from this memory (bytes/s)
system.mem_ctrls.bw_total::.cpu.inst         17478130                       # Total bandwidth to/from this memory (bytes/s)
system.mem_ctrls.bw_total::.cpu.data        740094279                       # Total bandwidth to/from this memory (bytes/s)
system.mem_ctrls.bw_total::total            767744638                       # Total bandwidth to/from this memory (bytes/s)
system.mem_ctrls.avgPriority_.writebacks::samples       472.00                       # Average QoS priority value for accepted requests
system.mem_ctrls.avgPriority_.cpu.inst::samples       811.00                       # Average QoS priority value for accepted requests
system.mem_ctrls.avgPriority_.cpu.data::samples     34335.00                       # Average QoS priority value for accepted requests
system.mem_ctrls.priorityMinLatency      0.000000018750                       # per QoS priority minimum request to response latency (s)
system.mem_ctrls.priorityMaxLatency      0.000498055794                       # per QoS priority maximum request to response latency (s)
system.mem_ctrls.numReadWriteTurnArounds           28                       # Number of turnarounds from READ to WRITE
system.mem_ctrls.numWriteReadTurnArounds           28                       # Number of turnarounds from WRITE to READ
system.mem_ctrls.numStayReadState               63185                       # Number of times bus staying in READ state
system.mem_ctrls.numStayWriteState                426                       # Number of times bus staying in WRITE state
system.mem_ctrls.readReqs                       35152                       # Number of read requests accepted
system.mem_ctrls.writeReqs                        472                       # Number of write requests accepted
system.mem_ctrls.readBursts                     35152                       # Number of DRAM read bursts, including those serviced by the write queue
system.mem_ctrls.writeBursts                      472                       # Number of DRAM write bursts, including those merged in the write queue
system.mem_ctrls.bytesReadDRAM                2249344                       # Total number of bytes read from DRAM
system.mem_ctrls.bytesReadWrQ                     384                       # Total number of bytes read from write queue
system.mem_ctrls.bytesWritten                   28864                       # Total number of bytes written to DRAM
system.mem_ctrls.bytesReadSys                 2249728                       # Total read bytes from the system interface side
system.mem_ctrls.bytesWrittenSys                30208                       # Total written bytes from the system interface side
system.mem_ctrls.servicedByWrQ                      6                       # Number of DRAM read bursts serviced by the write queue
system.mem_ctrls.mergedWrBursts                     0                       # Number of DRAM write bursts merged with an existing one
system.mem_ctrls.neitherReadNorWriteReqs            0                       # Number of requests that are neither read nor write
system.mem_ctrls.perBankRdBursts::0              2128                       # Per bank write bursts
system.mem_ctrls.perBankRdBursts::1              2140                       # Per bank write bursts
system.mem_ctrls.perBankRdBursts::2              2259                       # Per bank write bursts
system.mem_ctrls.perBankRdBursts::3              2222                       # Per bank write bursts
system.mem_ctrls.perBankRdBursts::4              2211                       # Per bank write bursts
system.mem_ctrls.perBankRdBursts::5              2239                       # Per bank write bursts
system.mem_ctrls.perBankRdBursts::6              2268                       # Per bank write bursts
system.mem_ctrls.perBankRdBursts::7              2170                       # Per bank write bursts
system.mem_ctrls.perBankRdBursts::8              2225                       # Per bank write bursts
system.mem_ctrls.perBankRdBursts::9              2244                       # Per bank write bursts
system.mem_ctrls.perBankRdBursts::10             2254                       # Per bank write bursts
system.mem_ctrls.perBankRdBursts::11             2201                       # Per bank write bursts
system.mem_ctrls.perBankRdBursts::12             2191                       # Per bank write bursts
system.mem_ctrls.perBankRdBursts::13             2154                       # Per bank write bursts
system.mem_ctrls.perBankRdBursts::14             2124                       # Per bank write bursts
system.mem_ctrls.perBankRdBursts::15             2116                       # Per bank write bursts
system.mem_ctrls.perBankWrBursts::0                 2                       # Per bank write bursts
system.mem_ctrls.perBankWrBursts::1                32                       # Per bank write bursts
system.mem_ctrls.perBankWrBursts::2               112                       # Per bank write bursts
system.mem_ctrls.perBankWrBursts::3                83                       # Per bank write bursts
system.mem_ctrls.perBankWrBursts::4                55                       # Per bank write bursts
system.mem_ctrls.perBankWrBursts::5                59                       # Per bank write bursts
system.mem_ctrls.perBankWrBursts::6                80                       # Per bank write bursts
system.mem_ctrls.perBankWrBursts::7                 1                       # Per bank write bursts
system.mem_ctrls.perBankWrBursts::8                 0                       # Per bank write bursts
system.mem_ctrls.perBankWrBursts::9                 0                       # Per bank write bursts
system.mem_ctrls.perBankWrBursts::10                0                       # Per bank write bursts
system.mem_ctrls.perBankWrBursts::11                0                       # Per bank write bursts
system.mem_ctrls.perBankWrBursts::12               27                       # Per bank write bursts
system.mem_ctrls.perBankWrBursts::13                0                       # Per bank write bursts
system.mem_ctrls.perBankWrBursts::14                0                       # Per bank write bursts
system.mem_ctrls.perBankWrBursts::15                0                       # Per bank write bursts
system.mem_ctrls.numRdRetry                         0                       # Number of times read queue was full causing retry
system.mem_ctrls.numWrRetry                         0                       # Number of times write queue was full causing retry
system.mem_ctrls.totGap                    2969570043                       # Total gap between requests
system.mem_ctrls.readPktSize::0                     0                       # Read request sizes (log2)
system.mem_ctrls.readPktSize::1                     0                       # Read request sizes (log2)
system.mem_ctrls.readPktSize::2                     0                       # Read request sizes (log2)
system.mem_ctrls.readPktSize::3                     0                       # Read request sizes (log2)
system.mem_ctrls.readPktSize::4                     0                       # Read request sizes (log2)
system.mem_ctrls.readPktSize::5                     0                       # Read request sizes (log2)
system.mem_ctrls.readPktSize::6                 35152                       # Read request sizes (log2)
system.mem_ctrls.writePktSize::0                    0                       # Write request sizes (log2)
system.mem_ctrls.writePktSize::1                    0                       # Write request sizes (log2)
system.mem_ctrls.writePktSize::2                    0                       # Write request sizes (log2)
system.mem_ctrls.writePktSize::3                    0                       # Write request sizes (log2)
system.mem_ctrls.writePktSize::4                    0                       # Write request sizes (log2)
system.mem_ctrls.writePktSize::5                    0                       # Write request sizes (log2)
system.mem_ctrls.writePktSize::6                  472                       # Write request sizes (log2)
system.mem_ctrls.rdQLenPdf::0                    8236                       # What read queue length does an incoming req see
system.mem_ctrls.rdQLenPdf::1                   13719                       # What read queue length does an incoming req see
system.mem_ctrls.rdQLenPdf::2                   10393                       # What read queue length does an incoming req see
system.mem_ctrls.rdQLenPdf::3                    2792                       # What read queue length does an incoming req see
system.mem_ctrls.rdQLenPdf::4                       6                       # What read queue length does an incoming req see
system.mem_ctrls.rdQLenPdf::5                       0                       # What read queue length does an incoming req see
system.mem_ctrls.rdQLenPdf::6                       0                       # What read queue length does an incoming req see
system.mem_ctrls.rdQLenPdf::7                       0                       # What read queue length does an incoming req see
system.mem_ctrls.rdQLenPdf::8                       0                       # What read queue length does an incoming req see
system.mem_ctrls.rdQLenPdf::9                       0                       # What read queue length does an incoming req see
system.mem_ctrls.rdQLenPdf::10                      0                       # What read queue length does an incoming req see
system.mem_ctrls.rdQLenPdf::11                      0                       # What read queue length does an incoming req see
system.mem_ctrls.rdQLenPdf::12                      0                       # What read queue length does an incoming req see
system.mem_ctrls.rdQLenPdf::13                      0                       # What read queue length does an incoming req see
system.mem_ctrls.rdQLenPdf::14                      0                       # What read queue length does an incoming req see
system.mem_ctrls.rdQLenPdf::15                      0                       # What read queue length does an incoming req see
system.mem_ctrls.rdQLenPdf::16                      0                       # What read queue length does an incoming req see
system.mem_ctrls.rdQLenPdf::17                      0                       # What read queue length does an incoming req see
system.mem_ctrls.rdQLenPdf::18                      0                       # What read queue length does an incoming req see
system.mem_ctrls.rdQLenPdf::19                      0                       # What read queue length does an incoming req see
system.mem_ctrls.rdQLenPdf::20                      0                       # What read queue length does an incoming req see
system.mem_ctrls.rdQLenPdf::21                      0                       # What read queue length does an incoming req see
system.mem_ctrls.rdQLenPdf::22                      0                       # What read queue length does an incoming req see
system.mem_ctrls.rdQLenPdf::23                      0                       # What read queue length does an incoming req see
system.mem_ctrls.rdQLenPdf::24                      0                       # What read queue length does an incoming req see
system.mem_ctrls.rdQLenPdf::25                      0                       # What read queue length does an incoming req see
system.mem_ctrls.rdQLenPdf::26                      0                       # What read queue length does an incoming req see
system.mem_ctrls.rdQLenPdf::27                      0                       # What read queue length does an incoming req see
system.mem_ctrls.rdQLenPdf::28                      0                       # What read queue length does an incoming req see
system.mem_ctrls.rdQLenPdf::29                      0                       # What read queue length does an incoming req see
system.mem_ctrls.rdQLenPdf::30                      0                       # What read queue length does an incoming req see
system.mem_ctrls.rdQLenPdf::31                      0                       # What read queue length does an incoming req see
system.mem_ctrls.wrQLenPdf::0                       1                       # What write queue length does an incoming req see
system.mem_ctrls.wrQLenPdf::1                       1                       # What write queue length does an incoming req see
system.mem_ctrls.wrQLenPdf::2                       1                       # What write queue length does an incoming req see
system.mem_ctrls.wrQLenPdf::3                       1                       # What write queue length does an incoming req see
system.mem_ctrls.wrQLenPdf::4                       1                       # What write queue length does an incoming req see
system.mem_ctrls.wrQLenPdf::5                       1                       # What write queue length does an incoming req see
system.mem_ctrls.wrQLenPdf::6                       1                       # What write queue length does an incoming req see
system.mem_ctrls.wrQLenPdf::7                       1                       # What write queue length does an incoming req see
system.mem_ctrls.wrQLenPdf::8                       1                       # What write queue length does an incoming req see
system.mem_ctrls.wrQLenPdf::9                       1                       # What write queue length does an incoming req see
system.mem_ctrls.wrQLenPdf::10                      1                       # What write queue length does an incoming req see
system.mem_ctrls.wrQLenPdf::11                      1                       # What write queue length does an incoming req see
system.mem_ctrls.wrQLenPdf::12                      1                       # What write queue length does an incoming req see
system.mem_ctrls.wrQLenPdf::13                      1                       # What write queue length does an incoming req see
system.mem_ctrls.wrQLenPdf::14                      1                       # What write queue length does an incoming req see
system.mem_ctrls.wrQLenPdf::15                      2                       # What write queue length does an incoming req see
system.mem_ctrls.wrQLenPdf::16                      3                       # What write queue length does an incoming req see
system.mem_ctrls.wrQLenPdf::17                     28                       # What write queue length does an incoming req see
system.mem_ctrls.wrQLenPdf::18                     29                       # What write queue length does an incoming req see
system.mem_ctrls.wrQLenPdf::19                     29                       # What write queue length does an incoming req see
system.mem_ctrls.wrQLenPdf::20                     29                       # What write queue length does an incoming req see
system.mem_ctrls.wrQLenPdf::21                     28                       # What write queue length does an incoming req see
system.mem_ctrls.wrQLenPdf::22                     29                       # What write queue length does an incoming req see
system.mem_ctrls.wrQLenPdf::23                     28                       # What write queue length does an incoming req see
system.mem_ctrls.wrQLenPdf::24                     28                       # What write queue length does an incoming req see
system.mem_ctrls.wrQLenPdf::25                     28                       # What write queue length does an incoming req see
system.mem_ctrls.wrQLenPdf::26                     28                       # What write queue length does an incoming req see
system.mem_ctrls.wrQLenPdf::27                     28                       # What write queue length does an incoming req see
system.mem_ctrls.wrQLenPdf::28                     28                       # What write queue length does an incoming req see
system.mem_ctrls.wrQLenPdf::29                     28                       # What write queue length does an incoming req see
system.mem_ctrls.wrQLenPdf::30                     28                       # What write queue length does an incoming req see
system.mem_ctrls.wrQLenPdf::31                     28                       # What write queue length does an incoming req see
system.mem_ctrls.wrQLenPdf::32                     28                       # What write queue length does an incoming req see
system.mem_ctrls.wrQLenPdf::33                      0                       # What write queue length does an incoming req see
system.mem_ctrls.wrQLenPdf::34                      0                       # What write queue length does an incoming req see
system.mem_ctrls.wrQLenPdf::35                      0                       # What write queue length does an incoming req see
system.mem_ctrls.wrQLenPdf::36                      0                       # What write queue length does an incoming req see
system.mem_ctrls.wrQLenPdf::37                      0                       # What write queue length does an incoming req see
system.mem_ctrls.wrQLenPdf::38                      0                       # What write queue length does an incoming req see
system.mem_ctrls.wrQLenPdf::39                      0                       # What write queue length does an incoming req see
system.mem_ctrls.wrQLenPdf::40                      0                       # What write queue length does an incoming req see
system.mem_ctrls.wrQLenPdf::41                      0                       # What write queue length does an incoming req see
system.mem_ctrls.wrQLenPdf::42                      0                       # What write queue length does an incoming req see
system.mem_ctrls.wrQLenPdf::43                      0                       # What write queue length does an incoming req see
system.mem_ctrls.wrQLenPdf::44                      0                       # What write queue length does an incoming req see
system.mem_ctrls.wrQLenPdf::45                      0                       # What write queue length does an incoming req see
system.mem_ctrls.wrQLenPdf::46                      0                       # What write queue length does an incoming req see
system.mem_ctrls.wrQLenPdf::47                      0                       # What write queue length does an incoming req see
system.mem_ctrls.wrQLenPdf::48                      0                       # What write queue length does an incoming req see
system.mem_ctrls.wrQLenPdf::49                      0                       # What write queue length does an incoming req see
system.mem_ctrls.wrQLenPdf::50                      0                       # What write queue length does an incoming req see
system.mem_ctrls.wrQLenPdf::51                      0                       # What write queue length does an incoming req see
system.mem_ctrls.wrQLenPdf::52                      0                       # What write queue length does an incoming req see
system.mem_ctrls.wrQLenPdf::53                      0                       # What write queue length does an incoming req see
system.mem_ctrls.wrQLenPdf::54                      0                       # What write queue length does an incoming req see
system.mem_ctrls.wrQLenPdf::55                      0                       # What write queue length does an incoming req see
system.mem_ctrls.wrQLenPdf::56                      0                       # What write queue length does an incoming req see
system.mem_ctrls.wrQLenPdf::57                      0                       # What write queue length does an incoming req see
system.mem_ctrls.wrQLenPdf::58                      0                       # What write queue length does an incoming req see
system.mem_ctrls.wrQLenPdf::59                      0                       # What write queue length does an incoming req see
system.mem_ctrls.wrQLenPdf::60                      0                       # What write queue length does an incoming req see
system.mem_ctrls.wrQLenPdf::61                      0                       # What write queue length does an incoming req see
system.mem_ctrls.wrQLenPdf::62                      0                       # What write queue length does an incoming req see
system.mem_ctrls.wrQLenPdf::63                      0                       # What write queue length does an incoming req see
system.mem_ctrls.bytesPerActivate::samples        31505                       # Bytes accessed per row activation
system.mem_ctrls.bytesPerActivate::mean     72.221171                       # Bytes accessed per row activation
system.mem_ctrls.bytesPerActivate::gmean    67.798009                       # Bytes accessed per row activation
system.mem_ctrls.bytesPerActivate::stdev    57.331783                       # Bytes accessed per row activation
system.mem_ctrls.bytesPerActivate::0-127        29497     93.63%     93.63% # Bytes accessed per row activation
system.mem_ctrls.bytesPerActivate::128-255         1744      5.54%     99.16% # Bytes accessed per row activation
system.mem_ctrls.bytesPerActivate::256-383           89      0.28%     99.44% # Bytes accessed per row activation
system.mem_ctrls.bytesPerActivate::384-511           47      0.15%     99.59% # Bytes accessed per row activation
system.mem_ctrls.bytesPerActivate::512-639           23      0.07%     99.67% # Bytes accessed per row activation
system.mem_ctrls.bytesPerActivate::640-767           18      0.06%     99.72% # Bytes accessed per row activation
system.mem_ctrls.bytesPerActivate::768-895           11      0.03%     99.76% # Bytes accessed per row activation
system.mem_ctrls.bytesPerActivate::896-1023            7      0.02%     99.78% # Bytes accessed per row activation
system.mem_ctrls.bytesPerActivate::1024-1151           69      0.22%    100.00% # Bytes accessed per row activation
system.mem_ctrls.bytesPerActivate::total        31505                       # Bytes accessed per row activation
system.mem_ctrls.rdPerTurnAround::samples           28                       # Reads before turning the bus around for writes
system.mem_ctrls.rdPerTurnAround::mean    1248.464286                       # Reads before turning the bus around for writes
system.mem_ctrls.rdPerTurnAround::gmean    339.876256                       # Reads before turning the bus around for writes
system.mem_ctrls.rdPerTurnAround::stdev   4613.516980                       # Reads before turning the bus around for writes
system.mem_ctrls.rdPerTurnAround::0-1023           26     92.86%     92.86% # Reads before turning the bus around for writes
system.mem_ctrls.rdPerTurnAround::1024-2047            1      3.57%     96.43% # Reads before turning the bus around for writes
system.mem_ctrls.rdPerTurnAround::24576-25599            1      3.57%    100.00% # Reads before turning the bus around for writes
system.mem_ctrls.rdPerTurnAround::total            28                       # Reads before turning the bus around for writes
system.mem_ctrls.wrPerTurnAround::samples           28                       # Writes before turning the bus around for reads
system.mem_ctrls.wrPerTurnAround::mean      16.107143                       # Writes before turning the bus around for reads
system.mem_ctrls.wrPerTurnAround::gmean     16.102273                       # Writes before turning the bus around for reads
system.mem_ctrls.wrPerTurnAround::stdev      0.416270                       # Writes before turning the bus around for reads
system.mem_ctrls.wrPerTurnAround::16               26     92.86%     92.86% # Writes before turning the bus around for reads
system.mem_ctrls.wrPerTurnAround::17                1      3.57%     96.43% # Writes before turning the bus around for reads
system.mem_ctrls.wrPerTurnAround::18                1      3.57%    100.00% # Writes before turning the bus around for reads
system.mem_ctrls.wrPerTurnAround::total            28                       # Writes before turning the bus around for reads
system.mem_ctrls.masterReadBytes::.cpu.inst        51904                       # Per-master bytes read from memory
system.mem_ctrls.masterReadBytes::.cpu.data      2197440                       # Per-master bytes read from memory
system.mem_ctrls.masterWriteBytes::.writebacks        28864                       # Per-master bytes write to memory
system.mem_ctrls.masterReadRate::.cpu.inst 17478129.948592986912                       # Per-master bytes read from memory rate (Bytes/sec)
system.mem_ctrls.masterReadRate::.cpu.data 739964971.374772071838                       # Per-master bytes read from memory rate (Bytes/sec)
system.mem_ctrls.masterWriteRate::.writebacks 9719650.563274273649                       # Per-master bytes write to memory rate (Bytes/sec)
system.mem_ctrls.masterReadAccesses::.cpu.inst          811                       # Per-master read serviced memory accesses
system.mem_ctrls.masterReadAccesses::.cpu.data        34341                       # Per-master read serviced memory accesses
system.mem_ctrls.masterWriteAccesses::.writebacks          472                       # Per-master write serviced memory accesses
system.mem_ctrls.masterReadTotalLat::.cpu.inst     25785207                       # Per-master read total memory access latency
system.mem_ctrls.masterReadTotalLat::.cpu.data   1871304734                       # Per-master read total memory access latency
system.mem_ctrls.masterWriteTotalLat::.writebacks  12578468415                       # Per-master write total memory access latency
system.mem_ctrls.masterReadAvgLat::.cpu.inst     31794.34                       # Per-master read average memory access latency
system.mem_ctrls.masterReadAvgLat::.cpu.data     54491.85                       # Per-master read average memory access latency
system.mem_ctrls.masterWriteAvgLat::.writebacks  26649297.49                       # Per-master write average memory access latency
system.mem_ctrls.totQLat                   1238102441                       # Total ticks spent queuing
system.mem_ctrls.totMemAccLat              1897089941                       # Total ticks spent from burst creation until serviced by the DRAM
system.mem_ctrls.totBusLat                  175730000                       # Total ticks spent in databus transfers
system.mem_ctrls.avgQLat                     35227.41                       # Average queueing delay per DRAM burst
system.mem_ctrls.avgBusLat                    5000.00                       # Average bus latency per DRAM burst
system.mem_ctrls.avgMemAccLat                53977.41                       # Average memory access latency per DRAM burst
system.mem_ctrls.avgRdBW                       757.44                       # Average DRAM read bandwidth in MiByte/s
system.mem_ctrls.avgWrBW                         9.72                       # Average achieved write bandwidth in MiByte/s
system.mem_ctrls.avgRdBWSys                    757.57                       # Average system read bandwidth in MiByte/s
system.mem_ctrls.avgWrBWSys                     10.17                       # Average system write bandwidth in MiByte/s
system.mem_ctrls.peakBW                      12800.00                       # Theoretical peak bandwidth in MiByte/s
system.mem_ctrls.busUtil                         5.99                       # Data bus utilization in percentage
system.mem_ctrls.busUtilRead                     5.92                       # Data bus utilization in percentage for reads
system.mem_ctrls.busUtilWrite                    0.08                       # Data bus utilization in percentage for writes
system.mem_ctrls.avgRdQLen                       1.62                       # Average read queue length when enqueuing
system.mem_ctrls.avgWrQLen                      16.91                       # Average write queue length when enqueuing
system.mem_ctrls.readRowHits                     3726                       # Number of row buffer hits during reads
system.mem_ctrls.writeRowHits                     354                       # Number of row buffer hits during writes
system.mem_ctrls.readRowHitRate                 10.60                       # Row buffer hit rate for reads
system.mem_ctrls.writeRowHitRate                75.00                       # Row buffer hit rate for writes
system.mem_ctrls.avgGap                      83358.69                       # Average gap between requests
system.mem_ctrls.pageHitRate                    11.45                       # Row buffer hit rate, read and write combined
system.mem_ctrls_0.actEnergy                113218980                       # Energy for activate commands per rank (pJ)
system.mem_ctrls_0.preEnergy                 60146955                       # Energy for precharge commands per rank (pJ)
system.mem_ctrls_0.readEnergy               125928180                       # Energy for read commands per rank (pJ)
system.mem_ctrls_0.writeEnergy                2213280                       # Energy for write commands per rank (pJ)
system.mem_ctrls_0.refreshEnergy         97727760.000000                       # Energy for refresh commands per rank (pJ)
system.mem_ctrls_0.actBackEnergy            308172780                       # Energy for active background per rank (pJ)
system.mem_ctrls_0.preBackEnergy              2124000                       # Energy for precharge background per rank (pJ)
system.mem_ctrls_0.actPowerDownEnergy       251002920                       # Energy for active power-down per rank (pJ)
system.mem_ctrls_0.prePowerDownEnergy         4490880                       # Energy for precharge power-down per rank (pJ)
system.mem_ctrls_0.selfRefreshEnergy        414832140                       # Energy for self refresh per rank (pJ)
system.mem_ctrls_0.totalEnergy             1379857875                       # Total energy per rank (pJ)
system.mem_ctrls_0.averagePower            464.652729                       # Core power per rank (mW)
system.mem_ctrls_0.totalIdleTime           2288292773                       # Total Idle time Per DRAM Rank
system.mem_ctrls_0.memoryStateTime::IDLE       891284                       # Time in different power states
system.mem_ctrls_0.memoryStateTime::REF      41340000                       # Time in different power states
system.mem_ctrls_0.memoryStateTime::SREF   1726166269                       # Time in different power states
system.mem_ctrls_0.memoryStateTime::PRE_PDN     11692112                       # Time in different power states
system.mem_ctrls_0.memoryStateTime::ACT     639080077                       # Time in different power states
system.mem_ctrls_0.memoryStateTime::ACT_PDN    550484343                       # Time in different power states
system.mem_ctrls_1.actEnergy                111812400                       # Energy for activate commands per rank (pJ)
system.mem_ctrls_1.preEnergy                 59414520                       # Energy for precharge commands per rank (pJ)
system.mem_ctrls_1.readEnergy               125014260                       # Energy for read commands per rank (pJ)
system.mem_ctrls_1.writeEnergy                 140940                       # Energy for write commands per rank (pJ)
system.mem_ctrls_1.refreshEnergy         97727760.000000                       # Energy for refresh commands per rank (pJ)
system.mem_ctrls_1.actBackEnergy            304659870                       # Energy for active background per rank (pJ)
system.mem_ctrls_1.preBackEnergy              3132000                       # Energy for precharge background per rank (pJ)
system.mem_ctrls_1.actPowerDownEnergy       251943990                       # Energy for active power-down per rank (pJ)
system.mem_ctrls_1.prePowerDownEnergy         5644320                       # Energy for precharge power-down per rank (pJ)
system.mem_ctrls_1.selfRefreshEnergy        414834840                       # Energy for self refresh per rank (pJ)
system.mem_ctrls_1.totalEnergy             1374324900                       # Total energy per rank (pJ)
system.mem_ctrls_1.averagePower            462.789558                       # Core power per rank (mW)
system.mem_ctrls_1.totalIdleTime           2293157646                       # Total Idle time Per DRAM Rank
system.mem_ctrls_1.memoryStateTime::IDLE      3468675                       # Time in different power states
system.mem_ctrls_1.memoryStateTime::REF      41340000                       # Time in different power states
system.mem_ctrls_1.memoryStateTime::SREF   1726177608                       # Time in different power states
system.mem_ctrls_1.memoryStateTime::PRE_PDN     14694634                       # Time in different power states
system.mem_ctrls_1.memoryStateTime::ACT     631481478                       # Time in different power states
system.mem_ctrls_1.memoryStateTime::ACT_PDN    552491690                       # Time in different power states
system.pwrStateResidencyTicks::UNDEFINED   2969654085                       # Cumulative time (in ticks) in various power states
system.cpu.branchPred.lookups                  530758                       # Number of BP lookups
system.cpu.branchPred.condPredicted            530758                       # Number of conditional branches predicted
system.cpu.branchPred.condIncorrect              2696                       # Number of conditional branches incorrect
system.cpu.branchPred.BTBLookups               527727                       # Number of BTB lookups
system.cpu.branchPred.BTBHits                       0                       # Number of BTB hits
system.cpu.branchPred.BTBCorrect                    0                       # Number of correct BTB predictions (this stat may not work properly.
system.cpu.branchPred.BTBHitPct              0.000000                       # BTB Hit Percentage
system.cpu.branchPred.usedRAS                    1390                       # Number of times the RAS was used to get a target.
system.cpu.branchPred.RASInCorrect                340                       # Number of incorrect RAS predictions.
system.cpu.branchPred.indirectLookups          527727                       # Number of indirect predictor lookups.
system.cpu.branchPred.indirectHits             508282                       # Number of indirect target hits.
system.cpu.branchPred.indirectMisses            19445                       # Number of indirect misses.
system.cpu.branchPredindirectMispredicted         1772                       # Number of mispredicted indirect branches.
system.cpu_voltage_domain.voltage                   1                       # Voltage in Volts
system.cpu_clk_domain.clock                       667                       # Clock period in ticks
system.cpu.dtb.walker.pwrStateResidencyTicks::UNDEFINED   2969654085                       # Cumulative time (in ticks) in various power states
system.cpu.dtb.rdAccesses                      817719                       # TLB accesses on read requests
system.cpu.dtb.wrAccesses                       13456                       # TLB accesses on write requests
system.cpu.dtb.rdMisses                        439153                       # TLB misses on read requests
system.cpu.dtb.wrMisses                            85                       # TLB misses on write requests
system.cpu.apic_clk_domain.clock                10672                       # Clock period in ticks
system.cpu.interrupts.pwrStateResidencyTicks::UNDEFINED   2969654085                       # Cumulative time (in ticks) in various power states
system.cpu.itb.walker.pwrStateResidencyTicks::UNDEFINED   2969654085                       # Cumulative time (in ticks) in various power states
system.cpu.itb.rdAccesses                           0                       # TLB accesses on read requests
system.cpu.itb.wrAccesses                       17583                       # TLB accesses on write requests
system.cpu.itb.rdMisses                             0                       # TLB misses on read requests
system.cpu.itb.wrMisses                           117                       # TLB misses on write requests
system.cpu.workload.numSyscalls                    27                       # Number of system calls
system.cpu.pwrStateResidencyTicks::ON      2969654085                       # Cumulative time (in ticks) in various power states
system.cpu.numCycles                          4452256                       # number of cpu cycles simulated
system.cpu.numWorkItemsStarted                      0                       # number of work items this cpu started
system.cpu.numWorkItemsCompleted                    0                       # number of work items this cpu completed
system.cpu.fetch.icacheStallCycles              40212                       # Number of cycles fetch is stalled on an Icache miss
system.cpu.fetch.Insts                        5658851                       # Number of instructions fetch has processed
system.cpu.fetch.Branches                      530758                       # Number of branches that fetch encountered
system.cpu.fetch.predictedBranches             509672                       # Number of branches that fetch has predicted taken
system.cpu.fetch.Cycles                       4363384                       # Number of cycles fetch has run and was not squashing or blocked
system.cpu.fetch.SquashCycles                    5484                       # Number of cycles fetch has spent squashing
system.cpu.fetch.TlbCycles                        127                       # Number of cycles fetch has spent waiting for tlb
system.cpu.fetch.MiscStallCycles                   20                       # Number of cycles fetch has spent waiting on interrupts, or bad addresses, or out of MSHRs
system.cpu.fetch.PendingTrapStallCycles           305                       # Number of stall cycles due to pending traps
system.cpu.fetch.PendingQuiesceStallCycles           21                       # Number of stall cycles due to pending quiesce instructions
system.cpu.fetch.IcacheWaitRetryStallCycles           15                       # Number of stall cycles due to full MSHR
system.cpu.fetch.CacheLines                     17540                       # Number of cache lines fetched
system.cpu.fetch.IcacheSquashes                  1072                       # Number of outstanding Icache misses that were squashed
system.cpu.fetch.rateDist::samples            4406826                       # Number of instructions fetched each cycle (Total)
system.cpu.fetch.rateDist::mean              1.995678                       # Number of instructions fetched each cycle (Total)
system.cpu.fetch.rateDist::stdev             3.111332                       # Number of instructions fetched each cycle (Total)
system.cpu.fetch.rateDist::underflows               0      0.00%      0.00% # Number of instructions fetched each cycle (Total)
system.cpu.fetch.rateDist::0                  2861501     64.93%     64.93% # Number of instructions fetched each cycle (Total)
system.cpu.fetch.rateDist::1                   157546      3.58%     68.51% # Number of instructions fetched each cycle (Total)
system.cpu.fetch.rateDist::2                   117716      2.67%     71.18% # Number of instructions fetched each cycle (Total)
system.cpu.fetch.rateDist::3                   116607      2.65%     73.83% # Number of instructions fetched each cycle (Total)
system.cpu.fetch.rateDist::4                   117966      2.68%     76.50% # Number of instructions fetched each cycle (Total)
system.cpu.fetch.rateDist::5                   116544      2.64%     79.15% # Number of instructions fetched each cycle (Total)
system.cpu.fetch.rateDist::6                   117346      2.66%     81.81% # Number of instructions fetched each cycle (Total)
system.cpu.fetch.rateDist::7                   119654      2.72%     84.53% # Number of instructions fetched each cycle (Total)
system.cpu.fetch.rateDist::8                   681946     15.47%    100.00% # Number of instructions fetched each cycle (Total)
system.cpu.fetch.rateDist::overflows                0      0.00%    100.00% # Number of instructions fetched each cycle (Total)
system.cpu.fetch.rateDist::min_value                0                       # Number of instructions fetched each cycle (Total)
system.cpu.fetch.rateDist::max_value                8                       # Number of instructions fetched each cycle (Total)
system.cpu.fetch.rateDist::total              4406826                       # Number of instructions fetched each cycle (Total)
system.cpu.fetch.branchRate                  0.119211                       # Number of branch fetches per cycle
system.cpu.fetch.rate                        1.271008                       # Number of inst fetches per cycle
system.cpu.decode.IdleCycles                   488374                       # Number of cycles decode is idle
system.cpu.decode.BlockedCycles               2814370                       # Number of cycles decode is blocked
system.cpu.decode.RunCycles                    113626                       # Number of cycles decode is running
system.cpu.decode.UnblockCycles                987714                       # Number of cycles decode is unblocking
system.cpu.decode.SquashCycles                   2742                       # Number of cycles decode is squashing
system.cpu.decode.DecodedInsts                8771490                       # Number of instructions handled by decode
system.cpu.rename.SquashCycles                   2742                       # Number of cycles rename is squashing
system.cpu.rename.IdleCycles                   584421                       # Number of cycles rename is idle
system.cpu.rename.BlockCycles                 1408548                       # Number of cycles rename is blocking
system.cpu.rename.serializeStallCycles           2406                       # count of cycles rename stalled for serializing inst
system.cpu.rename.RunCycles                    989526                       # Number of cycles rename is running
system.cpu.rename.UnblockCycles               1419183                       # Number of cycles rename is unblocking
system.cpu.rename.RenamedInsts                8760532                       # Number of instructions processed by rename
system.cpu.rename.ROBFullEvents                 83678                       # Number of times rename has blocked due to ROB full
system.cpu.rename.IQFullEvents                1222785                       # Number of times rename has blocked due to IQ full
system.cpu.rename.LQFullEvents                    471                       # Number of times rename has blocked due to LQ full
system.cpu.rename.SQFullEvents                  19678                       # Number of times rename has blocked due to SQ full
system.cpu.rename.RenamedOperands            16313129                       # Number of destination operands rename has renamed
system.cpu.rename.RenameLookups              20163742                       # Number of register rename lookups that rename has made
system.cpu.rename.int_rename_lookups         13395390                       # Number of integer rename lookups
system.cpu.rename.fp_rename_lookups             11022                       # Number of floating rename lookups
system.cpu.rename.CommittedMaps              16177471                       # Number of HB maps that are committed
system.cpu.rename.UndoneMaps                   135658                       # Number of HB maps that are undone due to squashing
system.cpu.rename.serializingInsts                 86                       # count of serializing insts renamed
system.cpu.rename.tempSerializingInsts             59                       # count of temporary serializing insts renamed
system.cpu.rename.skidInsts                   3069695                       # count of insts added to the skid buffer
system.cpu.memDep0.insertedLoads               534759                       # Number of loads inserted to the mem dependence unit.
system.cpu.memDep0.insertedStores               16113                       # Number of stores inserted to the mem dependence unit.
system.cpu.memDep0.conflictingLoads              1007                       # Number of conflicting loads.
system.cpu.memDep0.conflictingStores              104                       # Number of conflicting stores.
system.cpu.iq.iqInstsAdded                    8740571                       # Number of instructions added to the IQ (excludes non-spec)
system.cpu.iq.iqNonSpecInstsAdded                  78                       # Number of non-speculative instructions added to the IQ
system.cpu.iq.iqInstsIssued                   8995375                       # Number of instructions issued
system.cpu.iq.iqSquashedInstsIssued               633                       # Number of squashed instructions issued
system.cpu.iq.iqSquashedInstsExamined           96549                       # Number of squashed instructions iterated over during squash; mainly for profiling
system.cpu.iq.iqSquashedOperandsExamined       139305                       # Number of squashed operands that are examined and possibly removed from graph
system.cpu.iq.iqSquashedNonSpecRemoved             51                       # Number of squashed non-spec instructions that were removed
system.cpu.iq.issued_per_cycle::samples       4406826                       # Number of insts issued each cycle
system.cpu.iq.issued_per_cycle::mean         2.041237                       # Number of insts issued each cycle
system.cpu.iq.issued_per_cycle::stdev        1.498706                       # Number of insts issued each cycle
system.cpu.iq.issued_per_cycle::underflows            0      0.00%      0.00% # Number of insts issued each cycle
system.cpu.iq.issued_per_cycle::0             1150227     26.10%     26.10% # Number of insts issued each cycle
system.cpu.iq.issued_per_cycle::1              360400      8.18%     34.28% # Number of insts issued each cycle
system.cpu.iq.issued_per_cycle::2              906360     20.57%     54.85% # Number of insts issued each cycle
system.cpu.iq.issued_per_cycle::3             1266853     28.75%     83.59% # Number of insts issued each cycle
system.cpu.iq.issued_per_cycle::4              642495     14.58%     98.17% # Number of insts issued each cycle
system.cpu.iq.issued_per_cycle::5               46409      1.05%     99.23% # Number of insts issued each cycle
system.cpu.iq.issued_per_cycle::6               22907      0.52%     99.75% # Number of insts issued each cycle
system.cpu.iq.issued_per_cycle::7                7171      0.16%     99.91% # Number of insts issued each cycle
system.cpu.iq.issued_per_cycle::8                4004      0.09%    100.00% # Number of insts issued each cycle
system.cpu.iq.issued_per_cycle::overflows            0      0.00%    100.00% # Number of insts issued each cycle
system.cpu.iq.issued_per_cycle::min_value            0                       # Number of insts issued each cycle
system.cpu.iq.issued_per_cycle::max_value            8                       # Number of insts issued each cycle
system.cpu.iq.issued_per_cycle::total         4406826                       # Number of insts issued each cycle
system.cpu.iq.fu_full::No_OpClass                   0      0.00%      0.00% # attempts to use FU when none available
system.cpu.iq.fu_full::IntAlu                    3463      8.43%      8.43% # attempts to use FU when none available
system.cpu.iq.fu_full::IntMult                      0      0.00%      8.43% # attempts to use FU when none available
system.cpu.iq.fu_full::IntDiv                       0      0.00%      8.43% # attempts to use FU when none available
system.cpu.iq.fu_full::FloatAdd                     0      0.00%      8.43% # attempts to use FU when none available
system.cpu.iq.fu_full::FloatCmp                     0      0.00%      8.43% # attempts to use FU when none available
system.cpu.iq.fu_full::FloatCvt                     0      0.00%      8.43% # attempts to use FU when none available
system.cpu.iq.fu_full::FloatMult                    0      0.00%      8.43% # attempts to use FU when none available
system.cpu.iq.fu_full::FloatMultAcc                 0      0.00%      8.43% # attempts to use FU when none available
system.cpu.iq.fu_full::FloatDiv                     0      0.00%      8.43% # attempts to use FU when none available
system.cpu.iq.fu_full::FloatMisc                    0      0.00%      8.43% # attempts to use FU when none available
system.cpu.iq.fu_full::FloatSqrt                    0      0.00%      8.43% # attempts to use FU when none available
system.cpu.iq.fu_full::SimdAdd                      0      0.00%      8.43% # attempts to use FU when none available
system.cpu.iq.fu_full::SimdAddAcc                   0      0.00%      8.43% # attempts to use FU when none available
system.cpu.iq.fu_full::SimdAlu                     13      0.03%      8.46% # attempts to use FU when none available
system.cpu.iq.fu_full::SimdCmp                      0      0.00%      8.46% # attempts to use FU when none available
system.cpu.iq.fu_full::SimdCvt                     13      0.03%      8.49% # attempts to use FU when none available
system.cpu.iq.fu_full::SimdMisc                     2      0.00%      8.49% # attempts to use FU when none available
system.cpu.iq.fu_full::SimdMult                     0      0.00%      8.49% # attempts to use FU when none available
system.cpu.iq.fu_full::SimdMultAcc                  0      0.00%      8.49% # attempts to use FU when none available
system.cpu.iq.fu_full::SimdShift                    1      0.00%      8.50% # attempts to use FU when none available
system.cpu.iq.fu_full::SimdShiftAcc                 0      0.00%      8.50% # attempts to use FU when none available
system.cpu.iq.fu_full::SimdSqrt                     0      0.00%      8.50% # attempts to use FU when none available
system.cpu.iq.fu_full::SimdFloatAdd                 0      0.00%      8.50% # attempts to use FU when none available
system.cpu.iq.fu_full::SimdFloatAlu                 0      0.00%      8.50% # attempts to use FU when none available
system.cpu.iq.fu_full::SimdFloatCmp                 0      0.00%      8.50% # attempts to use FU when none available
system.cpu.iq.fu_full::SimdFloatCvt                 0      0.00%      8.50% # attempts to use FU when none available
system.cpu.iq.fu_full::SimdFloatDiv                 0      0.00%      8.50% # attempts to use FU when none available
system.cpu.iq.fu_full::SimdFloatMisc                0      0.00%      8.50% # attempts to use FU when none available
system.cpu.iq.fu_full::SimdFloatMult                0      0.00%      8.50% # attempts to use FU when none available
system.cpu.iq.fu_full::SimdFloatMultAcc             0      0.00%      8.50% # attempts to use FU when none available
system.cpu.iq.fu_full::SimdFloatSqrt                0      0.00%      8.50% # attempts to use FU when none available
system.cpu.iq.fu_full::SimdAes                      0      0.00%      8.50% # attempts to use FU when none available
system.cpu.iq.fu_full::SimdAesMix                   0      0.00%      8.50% # attempts to use FU when none available
system.cpu.iq.fu_full::SimdSha1Hash                 0      0.00%      8.50% # attempts to use FU when none available
system.cpu.iq.fu_full::SimdSha1Hash2                0      0.00%      8.50% # attempts to use FU when none available
system.cpu.iq.fu_full::SimdSha256Hash               0      0.00%      8.50% # attempts to use FU when none available
system.cpu.iq.fu_full::SimdSha256Hash2              0      0.00%      8.50% # attempts to use FU when none available
system.cpu.iq.fu_full::SimdShaSigma2                0      0.00%      8.50% # attempts to use FU when none available
system.cpu.iq.fu_full::SimdShaSigma3                0      0.00%      8.50% # attempts to use FU when none available
system.cpu.iq.fu_full::MemRead                  37101     90.28%     98.78% # attempts to use FU when none available
system.cpu.iq.fu_full::MemWrite                   453      1.10%     99.88% # attempts to use FU when none available
system.cpu.iq.fu_full::FloatMemRead                11      0.03%     99.91% # attempts to use FU when none available
system.cpu.iq.fu_full::FloatMemWrite               38      0.09%    100.00% # attempts to use FU when none available
system.cpu.iq.fu_full::IprAccess                    0      0.00%    100.00% # attempts to use FU when none available
system.cpu.iq.fu_full::InstPrefetch                 0      0.00%    100.00% # attempts to use FU when none available
system.cpu.iq.FU_type_0::No_OpClass              2186      0.02%      0.02% # Type of FU issued
system.cpu.iq.FU_type_0::IntAlu               8156071     90.67%     90.69% # Type of FU issued
system.cpu.iq.FU_type_0::IntMult                   24      0.00%     90.69% # Type of FU issued
system.cpu.iq.FU_type_0::IntDiv                  1148      0.01%     90.71% # Type of FU issued
system.cpu.iq.FU_type_0::FloatAdd                 135      0.00%     90.71% # Type of FU issued
system.cpu.iq.FU_type_0::FloatCmp                   0      0.00%     90.71% # Type of FU issued
system.cpu.iq.FU_type_0::FloatCvt                   0      0.00%     90.71% # Type of FU issued
system.cpu.iq.FU_type_0::FloatMult                  0      0.00%     90.71% # Type of FU issued
system.cpu.iq.FU_type_0::FloatMultAcc               0      0.00%     90.71% # Type of FU issued
system.cpu.iq.FU_type_0::FloatDiv                   0      0.00%     90.71% # Type of FU issued
system.cpu.iq.FU_type_0::FloatMisc                  0      0.00%     90.71% # Type of FU issued
system.cpu.iq.FU_type_0::FloatSqrt                  0      0.00%     90.71% # Type of FU issued
system.cpu.iq.FU_type_0::SimdAdd                  375      0.00%     90.71% # Type of FU issued
system.cpu.iq.FU_type_0::SimdAddAcc                 0      0.00%     90.71% # Type of FU issued
system.cpu.iq.FU_type_0::SimdAlu                  781      0.01%     90.72% # Type of FU issued
system.cpu.iq.FU_type_0::SimdCmp                    6      0.00%     90.72% # Type of FU issued
system.cpu.iq.FU_type_0::SimdCvt                  923      0.01%     90.73% # Type of FU issued
system.cpu.iq.FU_type_0::SimdMisc                 589      0.01%     90.74% # Type of FU issued
system.cpu.iq.FU_type_0::SimdMult                   0      0.00%     90.74% # Type of FU issued
system.cpu.iq.FU_type_0::SimdMultAcc                0      0.00%     90.74% # Type of FU issued
system.cpu.iq.FU_type_0::SimdShift                185      0.00%     90.74% # Type of FU issued
system.cpu.iq.FU_type_0::SimdShiftAcc               0      0.00%     90.74% # Type of FU issued
system.cpu.iq.FU_type_0::SimdSqrt                   0      0.00%     90.74% # Type of FU issued
system.cpu.iq.FU_type_0::SimdFloatAdd               0      0.00%     90.74% # Type of FU issued
system.cpu.iq.FU_type_0::SimdFloatAlu               0      0.00%     90.74% # Type of FU issued
system.cpu.iq.FU_type_0::SimdFloatCmp               0      0.00%     90.74% # Type of FU issued
system.cpu.iq.FU_type_0::SimdFloatCvt               0      0.00%     90.74% # Type of FU issued
system.cpu.iq.FU_type_0::SimdFloatDiv               0      0.00%     90.74% # Type of FU issued
system.cpu.iq.FU_type_0::SimdFloatMisc              0      0.00%     90.74% # Type of FU issued
system.cpu.iq.FU_type_0::SimdFloatMult              0      0.00%     90.74% # Type of FU issued
system.cpu.iq.FU_type_0::SimdFloatMultAcc            0      0.00%     90.74% # Type of FU issued
system.cpu.iq.FU_type_0::SimdFloatSqrt              0      0.00%     90.74% # Type of FU issued
system.cpu.iq.FU_type_0::SimdAes                    0      0.00%     90.74% # Type of FU issued
system.cpu.iq.FU_type_0::SimdAesMix                 0      0.00%     90.74% # Type of FU issued
system.cpu.iq.FU_type_0::SimdSha1Hash               0      0.00%     90.74% # Type of FU issued
system.cpu.iq.FU_type_0::SimdSha1Hash2              0      0.00%     90.74% # Type of FU issued
system.cpu.iq.FU_type_0::SimdSha256Hash             0      0.00%     90.74% # Type of FU issued
system.cpu.iq.FU_type_0::SimdSha256Hash2            0      0.00%     90.74% # Type of FU issued
system.cpu.iq.FU_type_0::SimdShaSigma2              0      0.00%     90.74% # Type of FU issued
system.cpu.iq.FU_type_0::SimdShaSigma3              0      0.00%     90.74% # Type of FU issued
system.cpu.iq.FU_type_0::MemRead               817644      9.09%     99.83% # Type of FU issued
system.cpu.iq.FU_type_0::MemWrite               13497      0.15%     99.98% # Type of FU issued
system.cpu.iq.FU_type_0::FloatMemRead            1359      0.02%     99.99% # Type of FU issued
system.cpu.iq.FU_type_0::FloatMemWrite            452      0.01%    100.00% # Type of FU issued
system.cpu.iq.FU_type_0::IprAccess                  0      0.00%    100.00% # Type of FU issued
system.cpu.iq.FU_type_0::InstPrefetch               0      0.00%    100.00% # Type of FU issued
system.cpu.iq.FU_type_0::total                8995375                       # Type of FU issued
system.cpu.iq.rate                           2.020408                       # Inst issue rate
system.cpu.iq.fu_busy_cnt                       41095                       # FU busy when requested
system.cpu.iq.fu_busy_rate                   0.004568                       # FU busy rate (busy events/executed inst)
system.cpu.iq.int_inst_queue_reads           22429437                       # Number of integer instruction queue reads
system.cpu.iq.int_inst_queue_writes           8827774                       # Number of integer instruction queue writes
system.cpu.iq.int_inst_queue_wakeup_accesses      8693720                       # Number of integer instruction queue wakeup accesses
system.cpu.iq.fp_inst_queue_reads                9867                       # Number of floating instruction queue reads
system.cpu.iq.fp_inst_queue_writes               9460                       # Number of floating instruction queue writes
system.cpu.iq.fp_inst_queue_wakeup_accesses         4455                       # Number of floating instruction queue wakeup accesses
system.cpu.iq.vec_inst_queue_reads                  0                       # Number of vector instruction queue reads
system.cpu.iq.vec_inst_queue_writes                 0                       # Number of vector instruction queue writes
system.cpu.iq.vec_inst_queue_wakeup_accesses            0                       # Number of vector instruction queue wakeup accesses
system.cpu.iq.int_alu_accesses                9029337                       # Number of integer alu accesses
system.cpu.iq.fp_alu_accesses                    4947                       # Number of floating point alu accesses
system.cpu.iq.vec_alu_accesses                      0                       # Number of vector alu accesses
system.cpu.iew.lsq.thread0.forwLoads             2390                       # Number of loads that had data forwarded from stores
system.cpu.iew.lsq.thread0.invAddrLoads             0                       # Number of loads ignored due to an invalid address
system.cpu.iew.lsq.thread0.squashedLoads        14487                       # Number of loads squashed
system.cpu.iew.lsq.thread0.ignoredResponses           18                       # Number of memory responses ignored because the instruction is squashed
system.cpu.iew.lsq.thread0.memOrderViolation           40                       # Number of memory ordering violations
system.cpu.iew.lsq.thread0.squashedStores         6358                       # Number of stores squashed
system.cpu.iew.lsq.thread0.invAddrSwpfs             0                       # Number of software prefetches ignored due to an invalid address
system.cpu.iew.lsq.thread0.blockedLoads             0                       # Number of blocked loads due to partial load-store forwarding
system.cpu.iew.lsq.thread0.rescheduledLoads            6                       # Number of loads that were rescheduled
system.cpu.iew.lsq.thread0.cacheBlocked        288317                       # Number of times an access to memory failed due to the cache being blocked
system.cpu.iew.iewIdleCycles                        0                       # Number of cycles IEW is idle
system.cpu.iew.iewSquashCycles                   2742                       # Number of cycles IEW is squashing
system.cpu.iew.iewBlockCycles                   53004                       # Number of cycles IEW is blocking
system.cpu.iew.iewUnblockCycles                  5101                       # Number of cycles IEW is unblocking
system.cpu.iew.iewDispatchedInsts             8740649                       # Number of instructions dispatched to IQ
system.cpu.iew.iewDispSquashedInsts               114                       # Number of squashed instructions skipped by dispatch
system.cpu.iew.iewDispLoadInsts                534759                       # Number of dispatched load instructions
system.cpu.iew.iewDispStoreInsts                16113                       # Number of dispatched store instructions
system.cpu.iew.iewDispNonSpecInsts                 56                       # Number of dispatched non-speculative instructions
system.cpu.iew.iewIQFullEvents                    608                       # Number of times the IQ has become full, causing a stall
system.cpu.iew.iewLSQFullEvents                  4253                       # Number of times the LSQ has become full, causing a stall
system.cpu.iew.memOrderViolationEvents             40                       # Number of memory order violations
system.cpu.iew.predictedTakenIncorrect            682                       # Number of branches that were predicted taken incorrectly
system.cpu.iew.predictedNotTakenIncorrect         2751                       # Number of branches that were predicted not taken incorrectly
system.cpu.iew.branchMispredicts                 3433                       # Number of branch mispredicts detected at execute
system.cpu.iew.iewExecutedInsts               8989812                       # Number of executed instructions
system.cpu.iew.iewExecLoadInsts                817698                       # Number of load instructions executed
system.cpu.iew.iewExecSquashedInsts              5563                       # Number of squashed instructions skipped in execute
system.cpu.iew.exec_swp                             0                       # number of swp insts executed
system.cpu.iew.exec_nop                             0                       # number of nop insts executed
system.cpu.iew.exec_refs                       831153                       # number of memory reference insts executed
system.cpu.iew.exec_branches                   518638                       # Number of branches executed
system.cpu.iew.exec_stores                      13455                       # Number of stores executed
system.cpu.iew.exec_rate                     2.019159                       # Inst execution rate
system.cpu.iew.wb_sent                        8699562                       # cumulative count of insts sent to commit
system.cpu.iew.wb_count                       8698175                       # cumulative count of insts written-back
system.cpu.iew.wb_producers                   7933117                       # num instructions producing a value
system.cpu.iew.wb_consumers                  14528722                       # num instructions consuming a value
system.cpu.iew.wb_rate                       1.953656                       # insts written-back per cycle
system.cpu.iew.wb_fanout                     0.546030                       # average fanout of values written-back
system.cpu.commit.commitSquashedInsts           96649                       # The number of squashed insts skipped by commit
system.cpu.commit.commitNonSpecStalls              27                       # The number of times commit has been forced to stall to communicate backwards
system.cpu.commit.branchMispredicts              2714                       # The number of times a branch was mispredicted
system.cpu.commit.committed_per_cycle::samples      4392327                       # Number of insts commited each cycle
system.cpu.commit.committed_per_cycle::mean     1.968000                       # Number of insts commited each cycle
system.cpu.commit.committed_per_cycle::stdev     3.319960                       # Number of insts commited each cycle
system.cpu.commit.committed_per_cycle::underflows            0      0.00%      0.00% # Number of insts commited each cycle
system.cpu.commit.committed_per_cycle::0      2872748     65.40%     65.40% # Number of insts commited each cycle
system.cpu.commit.committed_per_cycle::1       486104     11.07%     76.47% # Number of insts commited each cycle
system.cpu.commit.committed_per_cycle::2         7380      0.17%     76.64% # Number of insts commited each cycle
system.cpu.commit.committed_per_cycle::3         8110      0.18%     76.82% # Number of insts commited each cycle
system.cpu.commit.committed_per_cycle::4         3430      0.08%     76.90% # Number of insts commited each cycle
system.cpu.commit.committed_per_cycle::5         2662      0.06%     76.96% # Number of insts commited each cycle
system.cpu.commit.committed_per_cycle::6         1110      0.03%     76.99% # Number of insts commited each cycle
system.cpu.commit.committed_per_cycle::7         1049      0.02%     77.01% # Number of insts commited each cycle
system.cpu.commit.committed_per_cycle::8      1009734     22.99%    100.00% # Number of insts commited each cycle
system.cpu.commit.committed_per_cycle::overflows            0      0.00%    100.00% # Number of insts commited each cycle
system.cpu.commit.committed_per_cycle::min_value            0                       # Number of insts commited each cycle
system.cpu.commit.committed_per_cycle::max_value            8                       # Number of insts commited each cycle
system.cpu.commit.committed_per_cycle::total      4392327                       # Number of insts commited each cycle
system.cpu.commit.committedInsts              5577901                       # Number of instructions committed
system.cpu.commit.committedOps                8644099                       # Number of ops (including micro ops) committed
system.cpu.commit.swp_count                         0                       # Number of s/w prefetches committed
system.cpu.commit.refs                         530027                       # Number of memory references committed
system.cpu.commit.loads                        520272                       # Number of loads committed
system.cpu.commit.membars                           0                       # Number of memory barriers committed
system.cpu.commit.branches                     515040                       # Number of branches committed
system.cpu.commit.vec_insts                         0                       # Number of committed Vector instructions.
system.cpu.commit.fp_insts                       3004                       # Number of committed floating point instructions.
system.cpu.commit.int_insts                   8641212                       # Number of committed integer instructions.
system.cpu.commit.function_calls                  588                       # Number of function calls committed.
system.cpu.commit.op_class_0::No_OpClass         1155      0.01%      0.01% # Class of committed instruction
system.cpu.commit.op_class_0::IntAlu          8109864     93.82%     93.83% # Class of committed instruction
system.cpu.commit.op_class_0::IntMult              11      0.00%     93.83% # Class of committed instruction
system.cpu.commit.op_class_0::IntDiv             1083      0.01%     93.85% # Class of committed instruction
system.cpu.commit.op_class_0::FloatAdd             18      0.00%     93.85% # Class of committed instruction
system.cpu.commit.op_class_0::FloatCmp              0      0.00%     93.85% # Class of committed instruction
system.cpu.commit.op_class_0::FloatCvt              0      0.00%     93.85% # Class of committed instruction
system.cpu.commit.op_class_0::FloatMult             0      0.00%     93.85% # Class of committed instruction
system.cpu.commit.op_class_0::FloatMultAcc            0      0.00%     93.85% # Class of committed instruction
system.cpu.commit.op_class_0::FloatDiv              0      0.00%     93.85% # Class of committed instruction
system.cpu.commit.op_class_0::FloatMisc             0      0.00%     93.85% # Class of committed instruction
system.cpu.commit.op_class_0::FloatSqrt             0      0.00%     93.85% # Class of committed instruction
system.cpu.commit.op_class_0::SimdAdd             284      0.00%     93.85% # Class of committed instruction
system.cpu.commit.op_class_0::SimdAddAcc            0      0.00%     93.85% # Class of committed instruction
system.cpu.commit.op_class_0::SimdAlu             403      0.00%     93.85% # Class of committed instruction
system.cpu.commit.op_class_0::SimdCmp               6      0.00%     93.85% # Class of committed instruction
system.cpu.commit.op_class_0::SimdCvt             664      0.01%     93.86% # Class of committed instruction
system.cpu.commit.op_class_0::SimdMisc            482      0.01%     93.87% # Class of committed instruction
system.cpu.commit.op_class_0::SimdMult              0      0.00%     93.87% # Class of committed instruction
system.cpu.commit.op_class_0::SimdMultAcc            0      0.00%     93.87% # Class of committed instruction
system.cpu.commit.op_class_0::SimdShift           102      0.00%     93.87% # Class of committed instruction
system.cpu.commit.op_class_0::SimdShiftAcc            0      0.00%     93.87% # Class of committed instruction
system.cpu.commit.op_class_0::SimdSqrt              0      0.00%     93.87% # Class of committed instruction
system.cpu.commit.op_class_0::SimdFloatAdd            0      0.00%     93.87% # Class of committed instruction
system.cpu.commit.op_class_0::SimdFloatAlu            0      0.00%     93.87% # Class of committed instruction
system.cpu.commit.op_class_0::SimdFloatCmp            0      0.00%     93.87% # Class of committed instruction
system.cpu.commit.op_class_0::SimdFloatCvt            0      0.00%     93.87% # Class of committed instruction
system.cpu.commit.op_class_0::SimdFloatDiv            0      0.00%     93.87% # Class of committed instruction
system.cpu.commit.op_class_0::SimdFloatMisc            0      0.00%     93.87% # Class of committed instruction
system.cpu.commit.op_class_0::SimdFloatMult            0      0.00%     93.87% # Class of committed instruction
system.cpu.commit.op_class_0::SimdFloatMultAcc            0      0.00%     93.87% # Class of committed instruction
system.cpu.commit.op_class_0::SimdFloatSqrt            0      0.00%     93.87% # Class of committed instruction
system.cpu.commit.op_class_0::SimdAes               0      0.00%     93.87% # Class of committed instruction
system.cpu.commit.op_class_0::SimdAesMix            0      0.00%     93.87% # Class of committed instruction
system.cpu.commit.op_class_0::SimdSha1Hash            0      0.00%     93.87% # Class of committed instruction
system.cpu.commit.op_class_0::SimdSha1Hash2            0      0.00%     93.87% # Class of committed instruction
system.cpu.commit.op_class_0::SimdSha256Hash            0      0.00%     93.87% # Class of committed instruction
system.cpu.commit.op_class_0::SimdSha256Hash2            0      0.00%     93.87% # Class of committed instruction
system.cpu.commit.op_class_0::SimdShaSigma2            0      0.00%     93.87% # Class of committed instruction
system.cpu.commit.op_class_0::SimdShaSigma3            0      0.00%     93.87% # Class of committed instruction
system.cpu.commit.op_class_0::MemRead          519610      6.01%     99.88% # Class of committed instruction
system.cpu.commit.op_class_0::MemWrite           9419      0.11%     99.99% # Class of committed instruction
system.cpu.commit.op_class_0::FloatMemRead          662      0.01%    100.00% # Class of committed instruction
system.cpu.commit.op_class_0::FloatMemWrite          336      0.00%    100.00% # Class of committed instruction
system.cpu.commit.op_class_0::IprAccess             0      0.00%    100.00% # Class of committed instruction
system.cpu.commit.op_class_0::InstPrefetch            0      0.00%    100.00% # Class of committed instruction
system.cpu.commit.op_class_0::total           8644099                       # Class of committed instruction
system.cpu.commit.bw_lim_events               1009734                       # number cycles where commit BW limit reached
system.cpu.rob.rob_reads                     12123341                       # The number of ROB reads
system.cpu.rob.rob_writes                    17496160                       # The number of ROB writes
system.cpu.timesIdled                             483                       # Number of times that the entire CPU went into an idle state and unscheduled itself
system.cpu.idleCycles                           45430                       # Total number of cycles that the CPU has spent unscheduled due to idling
system.cpu.committedInsts                     5577901                       # Number of Instructions Simulated
system.cpu.committedOps                       8644099                       # Number of Ops (including micro ops) Simulated
system.cpu.cpi                               0.798196                       # CPI: Cycles Per Instruction
system.cpu.cpi_total                         0.798196                       # CPI: Total CPI of All Threads
system.cpu.ipc                               1.252826                       # IPC: Instructions Per Cycle
system.cpu.ipc_total                         1.252826                       # IPC: Total IPC of All Threads
system.cpu.int_regfile_reads                 13865710                       # number of integer regfile reads
system.cpu.int_regfile_writes                 8164241                       # number of integer regfile writes
system.cpu.fp_regfile_reads                      7016                       # number of floating regfile reads
system.cpu.fp_regfile_writes                     3634                       # number of floating regfile writes
system.cpu.cc_regfile_reads                   5101533                       # number of cc regfile reads
system.cpu.cc_regfile_writes                  8068717                       # number of cc regfile writes
system.cpu.misc_regfile_reads                 1873273                       # number of misc regfile reads
system.cpu.dcache.tags.pwrStateResidencyTicks::UNDEFINED   2969654085                       # Cumulative time (in ticks) in various power states
system.cpu.dcache.tags.tagsinuse           944.331472                       # Cycle average of tags in use
system.cpu.dcache.tags.total_refs              532227                       # Total number of references to valid blocks.
system.cpu.dcache.tags.sampled_refs            494306                       # Sample count of references to valid blocks.
system.cpu.dcache.tags.avg_refs              1.076716                       # Average number of references to valid blocks.
system.cpu.dcache.tags.warmup_cycle            191429                       # Cycle when the warmup percentage was hit.
system.cpu.dcache.tags.occ_blocks::.cpu.data   944.331472                       # Average occupied blocks per requestor
system.cpu.dcache.tags.occ_percent::.cpu.data     0.922199                       # Average percentage of cache occupancy
system.cpu.dcache.tags.occ_percent::total     0.922199                       # Average percentage of cache occupancy
system.cpu.dcache.tags.occ_task_id_blocks::1024          960                       # Occupied blocks per task id
system.cpu.dcache.tags.age_task_id_blocks_1024::0          718                       # Occupied blocks per task id
system.cpu.dcache.tags.age_task_id_blocks_1024::1          242                       # Occupied blocks per task id
[...]
system.l2.ReadCleanReq_accesses::total            824                       # number of ReadCleanReq accesses(hits+misses)
system.l2.ReadSharedReq_accesses::.cpu.data       493877                       # number of ReadSharedReq accesses(hits+misses)
system.l2.ReadSharedReq_accesses::total        493877                       # number of ReadSharedReq accesses(hits+misses)
system.l2.demand_accesses::.cpu.inst              824                       # number of demand (read+write) accesses
system.l2.demand_accesses::.cpu.data           494306                       # number of demand (read+write) accesses
system.l2.demand_accesses::total               495130                       # number of demand (read+write) accesses
system.l2.overall_accesses::.cpu.inst             824                       # number of overall (read+write) accesses
system.l2.overall_accesses::.cpu.data          494306                       # number of overall (read+write) accesses
system.l2.overall_accesses::total              495130                       # number of overall (read+write) accesses
system.l2.ReadExReq_miss_rate::.cpu.data     0.979021                       # miss rate for ReadExReq accesses
system.l2.ReadExReq_miss_rate::total         0.979021                       # miss rate for ReadExReq accesses
system.l2.ReadCleanReq_miss_rate::.cpu.inst     0.984223                       # miss rate for ReadCleanReq accesses
system.l2.ReadCleanReq_miss_rate::total      0.984223                       # miss rate for ReadCleanReq accesses
system.l2.ReadSharedReq_miss_rate::.cpu.data     0.068683                       # miss rate for ReadSharedReq accesses
system.l2.ReadSharedReq_miss_rate::total     0.068683                       # miss rate for ReadSharedReq accesses
system.l2.demand_miss_rate::.cpu.inst        0.984223                       # miss rate for demand accesses
system.l2.demand_miss_rate::.cpu.data        0.069473                       # miss rate for demand accesses
system.l2.demand_miss_rate::total            0.070995                       # miss rate for demand accesses
system.l2.overall_miss_rate::.cpu.inst       0.984223                       # miss rate for overall accesses
system.l2.overall_miss_rate::.cpu.data       0.069473                       # miss rate for overall accesses
system.l2.overall_miss_rate::total           0.070995                       # miss rate for overall accesses
system.l2.ReadExReq_avg_miss_latency::.cpu.data 85031.383333                       # average ReadExReq miss latency
system.l2.ReadExReq_avg_miss_latency::total 85031.383333                       # average ReadExReq miss latency
system.l2.ReadCleanReq_avg_miss_latency::.cpu.inst 86320.162762                       # average ReadCleanReq miss latency
system.l2.ReadCleanReq_avg_miss_latency::total 86320.162762                       # average ReadCleanReq miss latency
system.l2.ReadSharedReq_avg_miss_latency::.cpu.data 109204.285457                       # average ReadSharedReq miss latency
system.l2.ReadSharedReq_avg_miss_latency::total 109204.285457                       # average ReadSharedReq miss latency
system.l2.demand_avg_miss_latency::.cpu.inst 86320.162762                       # average overall miss latency
system.l2.demand_avg_miss_latency::.cpu.data 108908.644128                       # average overall miss latency
system.l2.demand_avg_miss_latency::total 108387.500000                       # average overall miss latency
system.l2.overall_avg_miss_latency::.cpu.inst 86320.162762                       # average overall miss latency
system.l2.overall_avg_miss_latency::.cpu.data 108908.644128                       # average overall miss latency
system.l2.overall_avg_miss_latency::total 108387.500000                       # average overall miss latency
system.l2.blocked_cycles::no_mshrs                  0                       # number of cycles access was blocked
system.l2.blocked_cycles::no_targets                0                       # number of cycles access was blocked
system.l2.blocked::no_mshrs                         0                       # number of cycles access was blocked
system.l2.blocked::no_targets                       0                       # number of cycles access was blocked
system.l2.avg_blocked_cycles::no_mshrs            nan                       # average number of cycles each access was blocked
system.l2.avg_blocked_cycles::no_targets          nan                       # average number of cycles each access was blocked
system.l2.writebacks::.writebacks                 472                       # number of writebacks
system.l2.writebacks::total                       472                       # number of writebacks
system.l2.ReadExReq_mshr_misses::.cpu.data          420                       # number of ReadExReq MSHR misses
system.l2.ReadExReq_mshr_misses::total            420                       # number of ReadExReq MSHR misses
system.l2.ReadCleanReq_mshr_misses::.cpu.inst          811                       # number of ReadCleanReq MSHR misses
system.l2.ReadCleanReq_mshr_misses::total          811                       # number of ReadCleanReq MSHR misses
system.l2.ReadSharedReq_mshr_misses::.cpu.data        33921                       # number of ReadSharedReq MSHR misses
system.l2.ReadSharedReq_mshr_misses::total        33921                       # number of ReadSharedReq MSHR misses
system.l2.demand_mshr_misses::.cpu.inst           811                       # number of demand (read+write) MSHR misses
system.l2.demand_mshr_misses::.cpu.data         34341                       # number of demand (read+write) MSHR misses
system.l2.demand_mshr_misses::total             35152                       # number of demand (read+write) MSHR misses
system.l2.overall_mshr_misses::.cpu.inst          811                       # number of overall MSHR misses
system.l2.overall_mshr_misses::.cpu.data        34341                       # number of overall MSHR misses
system.l2.overall_mshr_misses::total            35152                       # number of overall MSHR misses
system.l2.ReadExReq_mshr_miss_latency::.cpu.data     30110381                       # number of ReadExReq MSHR miss cycles
system.l2.ReadExReq_mshr_miss_latency::total     30110381                       # number of ReadExReq MSHR miss cycles
system.l2.ReadCleanReq_mshr_miss_latency::.cpu.inst     59186912                       # number of ReadCleanReq MSHR miss cycles
system.l2.ReadCleanReq_mshr_miss_latency::total     59186912                       # number of ReadCleanReq MSHR miss cycles
system.l2.ReadSharedReq_mshr_miss_latency::.cpu.data   3251812427                       # number of ReadSharedReq MSHR miss cycles
system.l2.ReadSharedReq_mshr_miss_latency::total   3251812427                       # number of ReadSharedReq MSHR miss cycles
system.l2.demand_mshr_miss_latency::.cpu.inst     59186912                       # number of demand (read+write) MSHR miss cycles
system.l2.demand_mshr_miss_latency::.cpu.data   3281922808                       # number of demand (read+write) MSHR miss cycles
system.l2.demand_mshr_miss_latency::total   3341109720                       # number of demand (read+write) MSHR miss cycles
system.l2.overall_mshr_miss_latency::.cpu.inst     59186912                       # number of overall MSHR miss cycles
system.l2.overall_mshr_miss_latency::.cpu.data   3281922808                       # number of overall MSHR miss cycles
system.l2.overall_mshr_miss_latency::total   3341109720                       # number of overall MSHR miss cycles
system.l2.ReadExReq_mshr_miss_rate::.cpu.data     0.979021                       # mshr miss rate for ReadExReq accesses
system.l2.ReadExReq_mshr_miss_rate::total     0.979021                       # mshr miss rate for ReadExReq accesses
system.l2.ReadCleanReq_mshr_miss_rate::.cpu.inst     0.984223                       # mshr miss rate for ReadCleanReq accesses
system.l2.ReadCleanReq_mshr_miss_rate::total     0.984223                       # mshr miss rate for ReadCleanReq accesses
system.l2.ReadSharedReq_mshr_miss_rate::.cpu.data     0.068683                       # mshr miss rate for ReadSharedReq accesses
system.l2.ReadSharedReq_mshr_miss_rate::total     0.068683                       # mshr miss rate for ReadSharedReq accesses
system.l2.demand_mshr_miss_rate::.cpu.inst     0.984223                       # mshr miss rate for demand accesses
system.l2.demand_mshr_miss_rate::.cpu.data     0.069473                       # mshr miss rate for demand accesses
system.l2.demand_mshr_miss_rate::total       0.070995                       # mshr miss rate for demand accesses
system.l2.overall_mshr_miss_rate::.cpu.inst     0.984223                       # mshr miss rate for overall accesses
system.l2.overall_mshr_miss_rate::.cpu.data     0.069473                       # mshr miss rate for overall accesses
system.l2.overall_mshr_miss_rate::total      0.070995                       # mshr miss rate for overall accesses
system.l2.ReadExReq_avg_mshr_miss_latency::.cpu.data 71691.383333                       # average ReadExReq mshr miss latency
system.l2.ReadExReq_avg_mshr_miss_latency::total 71691.383333                       # average ReadExReq mshr miss latency
system.l2.ReadCleanReq_avg_mshr_miss_latency::.cpu.inst 72980.162762                       # average ReadCleanReq mshr miss latency
system.l2.ReadCleanReq_avg_mshr_miss_latency::total 72980.162762                       # average ReadCleanReq mshr miss latency
system.l2.ReadSharedReq_avg_mshr_miss_latency::.cpu.data 95864.285457                       # average ReadSharedReq mshr miss latency
system.l2.ReadSharedReq_avg_mshr_miss_latency::total 95864.285457                       # average ReadSharedReq mshr miss latency
system.l2.demand_avg_mshr_miss_latency::.cpu.inst 72980.162762                       # average overall mshr miss latency
system.l2.demand_avg_mshr_miss_latency::.cpu.data 95568.644128                       # average overall mshr miss latency
system.l2.demand_avg_mshr_miss_latency::total 95047.500000                       # average overall mshr miss latency
system.l2.overall_avg_mshr_miss_latency::.cpu.inst 72980.162762                       # average overall mshr miss latency
system.l2.overall_avg_mshr_miss_latency::.cpu.data 95568.644128                       # average overall mshr miss latency
system.l2.overall_avg_mshr_miss_latency::total 95047.500000                       # average overall mshr miss latency
system.l2.replacements                           2410                       # number of replacements
system.membus.snoop_filter.tot_requests         36858                       # Total number of requests made to the snoop filter.
system.membus.snoop_filter.hit_single_requests         1708                       # Number of requests hitting in the snoop filter with a single holder of the requested data.
system.membus.snoop_filter.hit_multi_requests            0                       # Number of requests hitting in the snoop filter with multiple (>1) holders of the requested data.
system.membus.snoop_filter.tot_snoops               0                       # Total number of snoops made to the snoop filter.
system.membus.snoop_filter.hit_single_snoops            0                       # Number of snoops hitting in the snoop filter with a single holder of the requested data.
system.membus.snoop_filter.hit_multi_snoops            0                       # Number of snoops hitting in the snoop filter with multiple (>1) holders of the requested data.
system.membus.pwrStateResidencyTicks::UNDEFINED   2969654085                       # Cumulative time (in ticks) in various power states
system.membus.trans_dist::ReadResp              34732                       # Transaction distribution
system.membus.trans_dist::WritebackDirty          472                       # Transaction distribution
system.membus.trans_dist::CleanEvict             1234                       # Transaction distribution
system.membus.trans_dist::ReadExReq               420                       # Transaction distribution
system.membus.trans_dist::ReadExResp              420                       # Transaction distribution
system.membus.trans_dist::ReadSharedReq         34732                       # Transaction distribution
system.membus.pkt_count_system.l2.mem_side::system.mem_ctrls.port        72010                       # Packet count per connected master and slave (bytes)
system.membus.pkt_count_system.l2.mem_side::total        72010                       # Packet count per connected master and slave (bytes)
system.membus.pkt_count::total                  72010                       # Packet count per connected master and slave (bytes)
system.membus.pkt_size_system.l2.mem_side::system.mem_ctrls.port      2279936                       # Cumulative packet size per connected master and slave (bytes)
system.membus.pkt_size_system.l2.mem_side::total      2279936                       # Cumulative packet size per connected master and slave (bytes)
system.membus.pkt_size::total                 2279936                       # Cumulative packet size per connected master and slave (bytes)
system.membus.snoops                                0                       # Total snoops (count)
system.membus.snoopTraffic                          0                       # Total snoop traffic (bytes)
system.membus.snoop_fanout::samples             35152                       # Request fanout histogram
system.membus.snoop_fanout::mean                    0                       # Request fanout histogram
system.membus.snoop_fanout::stdev                   0                       # Request fanout histogram
system.membus.snoop_fanout::underflows              0      0.00%      0.00% # Request fanout histogram
system.membus.snoop_fanout::0                   35152    100.00%    100.00% # Request fanout histogram
system.membus.snoop_fanout::1                       0      0.00%    100.00% # Request fanout histogram
system.membus.snoop_fanout::overflows               0      0.00%    100.00% # Request fanout histogram
system.membus.snoop_fanout::min_value               0                       # Request fanout histogram
system.membus.snoop_fanout::max_value               0                       # Request fanout histogram
system.membus.snoop_fanout::total               35152                       # Request fanout histogram
system.membus.reqLayer2.occupancy            25843582                       # Layer occupancy (ticks)
system.membus.reqLayer2.utilization               0.9                       # Layer utilization (%)
system.membus.respLayer1.occupancy          131401112                       # Layer occupancy (ticks)
system.membus.respLayer1.utilization              4.4                       # Layer utilization (%)
system.tol2bus.snoop_filter.tot_requests       988566                       # Total number of requests made to the snoop filter.
system.tol2bus.snoop_filter.hit_single_requests       493438                       # Number of requests hitting in the snoop filter with a single holder of the requested data.
system.tol2bus.snoop_filter.hit_multi_requests            7                       # Number of requests hitting in the snoop filter with multiple (>1) holders of the requested data.
system.tol2bus.snoop_filter.tot_snoops            703                       # Total number of snoops made to the snoop filter.
system.tol2bus.snoop_filter.hit_single_snoops          703                       # Number of snoops hitting in the snoop filter with a single holder of the requested data.
system.tol2bus.snoop_filter.hit_multi_snoops            0                       # Number of snoops hitting in the snoop filter with multiple (>1) holders of the requested data.
system.tol2bus.pwrStateResidencyTicks::UNDEFINED   2969654085                       # Cumulative time (in ticks) in various power states
system.tol2bus.trans_dist::ReadResp            494701                       # Transaction distribution
system.tol2bus.trans_dist::WritebackDirty          995                       # Transaction distribution
system.tol2bus.trans_dist::WritebackClean           90                       # Transaction distribution
system.tol2bus.trans_dist::CleanEvict          494761                       # Transaction distribution
system.tol2bus.trans_dist::ReadExReq              429                       # Transaction distribution
system.tol2bus.trans_dist::ReadExResp             429                       # Transaction distribution
system.tol2bus.trans_dist::ReadCleanReq           824                       # Transaction distribution
system.tol2bus.trans_dist::ReadSharedReq       493877                       # Transaction distribution
system.tol2bus.pkt_count_system.cpu.icache.mem_side::system.l2.cpu_side         1738                       # Packet count per connected master and slave (bytes)
system.tol2bus.pkt_count_system.cpu.dcache.mem_side::system.l2.cpu_side      1481958                       # Packet count per connected master and slave (bytes)
system.tol2bus.pkt_count::total               1483696                       # Packet count per connected master and slave (bytes)
system.tol2bus.pkt_size_system.cpu.icache.mem_side::system.l2.cpu_side        58496                       # Cumulative packet size per connected master and slave (bytes)
system.tol2bus.pkt_size_system.cpu.dcache.mem_side::system.l2.cpu_side     31669056                       # Cumulative packet size per connected master and slave (bytes)
system.tol2bus.pkt_size::total               31727552                       # Cumulative packet size per connected master and slave (bytes)
system.tol2bus.snoops                            2410                       # Total snoops (count)
system.tol2bus.snoopTraffic                     30208                       # Total snoop traffic (bytes)
system.tol2bus.snoop_fanout::samples           497540                       # Request fanout histogram
system.tol2bus.snoop_fanout::mean            0.001431                       # Request fanout histogram
system.tol2bus.snoop_fanout::stdev           0.037802                       # Request fanout histogram
system.tol2bus.snoop_fanout::underflows             0      0.00%      0.00% # Request fanout histogram
system.tol2bus.snoop_fanout::0                 496828     99.86%     99.86% # Request fanout histogram
system.tol2bus.snoop_fanout::1                    712      0.14%    100.00% # Request fanout histogram
system.tol2bus.snoop_fanout::2                      0      0.00%    100.00% # Request fanout histogram
system.tol2bus.snoop_fanout::3                      0      0.00%    100.00% # Request fanout histogram
system.tol2bus.snoop_fanout::4                      0      0.00%    100.00% # Request fanout histogram
system.tol2bus.snoop_fanout::overflows              0      0.00%    100.00% # Request fanout histogram
system.tol2bus.snoop_fanout::min_value              0                       # Request fanout histogram
system.tol2bus.snoop_fanout::max_value              1                       # Request fanout histogram
system.tol2bus.snoop_fanout::total             497540                       # Request fanout histogram
system.tol2bus.reqLayer0.occupancy          660191264                       # Layer occupancy (ticks)
system.tol2bus.reqLayer0.utilization             22.2                       # Layer utilization (%)
system.tol2bus.respLayer0.occupancy           1649490                       # Layer occupancy (ticks)
system.tol2bus.respLayer0.utilization             0.1                       # Layer utilization (%)
system.tol2bus.respLayer1.occupancy         989106306                       # Layer occupancy (ticks)
system.tol2bus.respLayer1.utilization            33.3                       # Layer utilization (%)

---------- End Simulation Statistics   ----------
