
---------- Begin Simulation Statistics ----------
sim_seconds                                  0.001838                       # Number of seconds simulated
sim_ticks                                  1837992537                       # Number of ticks simulated
final_tick                                 1837992537                       # Number of ticks from beginning of simulation (restored from checkpoints and never reset)
sim_freq                                 1000000000000                       # Frequency of simulated ticks
host_inst_rate                                  62496                       # Simulator instruction rate (inst/s)
host_op_rate                                   101921                       # Simulator op (including micro ops) rate (op/s)
host_tick_rate                               38378011                       # Simulator tick rate (ticks/s)
host_mem_usage                                 670488                       # Number of bytes of host memory used
host_seconds                                    47.89                       # Real time elapsed on the host
sim_insts                                     2993062                       # Number of instructions simulated
sim_ops                                       4881169                       # Number of ops (including micro ops) simulated
system.voltage_domain.voltage                       1                       # Voltage in Volts
system.clk_domain.clock                           667                       # Clock period in ticks
system.mem_ctrls.pwrStateResidencyTicks::UNDEFINED   1837992537                       # Cumulative time (in ticks) in various power states
system.mem_ctrls.bytes_read::.cpu.inst          53184                       # Number of bytes read from this memory
system.mem_ctrls.bytes_read::.cpu.data         160384                       # Number of bytes read from this memory
system.mem_ctrls.bytes_read::total             213568                       # Number of bytes read from this memory
system.mem_ctrls.bytes_inst_read::.cpu.inst        53184                       # Number of instructions bytes read from this memory
system.mem_ctrls.bytes_inst_read::total         53184                       # Number of instructions bytes read from this memory
system.mem_ctrls.num_reads::.cpu.inst             831                       # Number of read requests responded to by this memory
system.mem_ctrls.num_reads::.cpu.data            2506                       # Number of read requests responded to by this memory
system.mem_ctrls.num_reads::total                3337                       # Number of read requests responded to by this memory
system.mem_ctrls.bw_read::.cpu.inst          28935917                       # Total read bandwidth from this memory (bytes/s)
system.mem_ctrls.bw_read::.cpu.data          87260420                       # Total read bandwidth from this memory (bytes/s)
system.mem_ctrls.bw_read::total             116196337                       # Total read bandwidth from this memory (bytes/s)
system.mem_ctrls.bw_inst_read::.cpu.inst     28935917                       # Instruction read bandwidth from this memory (bytes/s)
system.mem_ctrls.bw_inst_read::total         28935917                       # Instruction read bandwidth from this memory (bytes/s)
system.mem_ctrls.bw_total::.cpu.inst         28935917                       # Total bandwidth to/from this memory (bytes/s)
system.mem_ctrls.bw_total::.cpu.data         87260420                       # Total bandwidth to/from this memory (bytes/s)
system.mem_ctrls.bw_total::total            116196337                       # Total bandwidth to/from this memory (bytes/s)
system.mem_ctrls.avgPriority_.cpu.inst::samples       831.00                       # Average QoS priority value for accepted requests
system.mem_ctrls.avgPriority_.cpu.data::samples      2506.00                       # Average QoS priority value for accepted requests
system.mem_ctrls.priorityMinLatency      0.000000018750                       # per QoS priority minimum request to response latency (s)
system.mem_ctrls.priorityMaxLatency      0.000001099750                       # per QoS priority maximum request to response latency (s)
system.mem_ctrls.numReadWriteTurnArounds            0                       # Number of turnarounds from READ to WRITE
system.mem_ctrls.numWriteReadTurnArounds            0                       # Number of turnarounds from WRITE to READ
system.mem_ctrls.numStayReadState                6911                       # Number of times bus staying in READ state
system.mem_ctrls.numStayWriteState                  0                       # Number of times bus staying in WRITE state
system.mem_ctrls.readReqs                        3337                       # Number of read requests accepted
system.mem_ctrls.writeReqs                          0                       # Number of write requests accepted
system.mem_ctrls.readBursts                      3337                       # Number of DRAM read bursts, including those serviced by the write queue
system.mem_ctrls.writeBursts                        0                       # Number of DRAM write bursts, including those merged in the write queue
system.mem_ctrls.bytesReadDRAM                 213568                       # Total number of bytes read from DRAM
system.mem_ctrls.bytesReadWrQ                       0                       # Total number of bytes read from write queue
system.mem_ctrls.bytesWritten                       0                       # Total number of bytes written to DRAM
system.mem_ctrls.bytesReadSys                  213568                       # Total read bytes from the system interface side
system.mem_ctrls.bytesWrittenSys                    0                       # Total written bytes from the system interface side
system.mem_ctrls.servicedByWrQ                      0                       # Number of DRAM read bursts serviced by the write queue
system.mem_ctrls.mergedWrBursts                     0                       # Number of DRAM write bursts merged with an existing one
system.mem_ctrls.neitherReadNorWriteReqs            0                       # Number of requests that are neither read nor write
system.mem_ctrls.perBankRdBursts::0               191                       # Per bank write bursts
system.mem_ctrls.perBankRdBursts::1               270                       # Per bank write bursts
system.mem_ctrls.perBankRdBursts::2               332                       # Per bank write bursts
system.mem_ctrls.perBankRdBursts::3               323                       # Per bank write bursts
system.mem_ctrls.perBankRdBursts::4               260                       # Per bank write bursts
system.mem_ctrls.perBankRdBursts::5               249                       # Per bank write bursts
system.mem_ctrls.perBankRdBursts::6               246                       # Per bank write bursts
system.mem_ctrls.perBankRdBursts::7               170                       # Per bank write bursts
system.mem_ctrls.perBankRdBursts::8               186                       # Per bank write bursts
system.mem_ctrls.perBankRdBursts::9                88                       # Per bank write bursts
system.mem_ctrls.perBankRdBursts::10              174                       # Per bank write bursts
system.mem_ctrls.perBankRdBursts::11              230                       # Per bank write bursts
system.mem_ctrls.perBankRdBursts::12              126                       # Per bank write bursts
system.mem_ctrls.perBankRdBursts::13              135                       # Per bank write bursts
system.mem_ctrls.perBankRdBursts::14              218                       # Per bank write bursts
system.mem_ctrls.perBankRdBursts::15              139                       # Per bank write bursts
system.mem_ctrls.perBankWrBursts::0                 0                       # Per bank write bursts
system.mem_ctrls.perBankWrBursts::1                 0                       # Per bank write bursts
system.mem_ctrls.perBankWrBursts::2                 0                       # Per bank write bursts
system.mem_ctrls.perBankWrBursts::3                 0                       # Per bank write bursts
system.mem_ctrls.perBankWrBursts::4                 0                       # Per bank write bursts
system.mem_ctrls.perBankWrBursts::5                 0                       # Per bank write bursts
system.mem_ctrls.perBankWrBursts::6                 0                       # Per bank write bursts
system.mem_ctrls.perBankWrBursts::7                 0                       # Per bank write bursts
system.mem_ctrls.perBankWrBursts::8                 0                       # Per bank write bursts
system.mem_ctrls.perBankWrBursts::9                 0                       # Per bank write bursts
system.mem_ctrls.perBankWrBursts::10                0                       # Per bank write bursts
system.mem_ctrls.perBankWrBursts::11                0                       # Per bank write bursts
system.mem_ctrls.perBankWrBursts::12                0                       # Per bank write bursts
system.mem_ctrls.perBankWrBursts::13                0                       # Per bank write bursts
system.mem_ctrls.perBankWrBursts::14                0                       # Per bank write bursts
system.mem_ctrls.perBankWrBursts::15                0                       # Per bank write bursts
system.mem_ctrls.numRdRetry                         0                       # Number of times read queue was full causing retry
system.mem_ctrls.numWrRetry                         0                       # Number of times write queue was full causing retry
system.mem_ctrls.totGap                    1837902492                       # Total gap between requests
system.mem_ctrls.readPktSize::0                     0                       # Read request sizes (log2)
system.mem_ctrls.readPktSize::1                     0                       # Read request sizes (log2)
system.mem_ctrls.readPktSize::2                     0                       # Read request sizes (log2)
system.mem_ctrls.readPktSize::3                     0                       # Read request sizes (log2)
system.mem_ctrls.readPktSize::4                     0                       # Read request sizes (log2)
system.mem_ctrls.readPktSize::5                     0                       # Read request sizes (log2)
system.mem_ctrls.readPktSize::6                  3337                       # Read request sizes (log2)
system.mem_ctrls.writePktSize::0                    0                       # Write request sizes (log2)
system.mem_ctrls.writePktSize::1                    0                       # Write request sizes (log2)
system.mem_ctrls.writePktSize::2                    0                       # Write request sizes (log2)
system.mem_ctrls.writePktSize::3                    0                       # Write request sizes (log2)
system.mem_ctrls.writePktSize::4                    0                       # Write request sizes (log2)
system.mem_ctrls.writePktSize::5                    0                       # Write request sizes (log2)
system.mem_ctrls.writePktSize::6                    0                       # Write request sizes (log2)
system.mem_ctrls.rdQLenPdf::0                    2379                       # What read queue length does an incoming req see
system.mem_ctrls.rdQLenPdf::1                     632                       # What read queue length does an incoming req see
system.mem_ctrls.rdQLenPdf::2                     256                       # What read queue length does an incoming req see
system.mem_ctrls.rdQLenPdf::3                      67                       # What read queue length does an incoming req see
system.mem_ctrls.rdQLenPdf::4                       3                       # What read queue length does an incoming req see
system.mem_ctrls.rdQLenPdf::5                       0                       # What read queue length does an incoming req see
system.mem_ctrls.rdQLenPdf::6                       0                       # What read queue length does an incoming req see
system.mem_ctrls.rdQLenPdf::7                       0                       # What read queue length does an incoming req see
system.mem_ctrls.rdQLenPdf::8                       0                       # What read queue length does an incoming req see
system.mem_ctrls.rdQLenPdf::9                       0                       # What read queue length does an incoming req see
system.mem_ctrls.rdQLenPdf::10                      0                       # What read queue length does an incoming req see
system.mem_ctrls.rdQLenPdf::11                      0                       # What read queue length does an incoming req see
system.mem_ctrls.rdQLenPdf::12                      0                       # What read queue length does an incoming req see
system.mem_ctrls.rdQLenPdf::13                      0                       # What read queue length does an incoming req see
system.mem_ctrls.rdQLenPdf::14                      0                       # What read queue length does an incoming req see
system.mem_ctrls.rdQLenPdf::15                      0                       # What read queue length does an incoming req see
system.mem_ctrls.rdQLenPdf::16                      0                       # What read queue length does an incoming req see
system.mem_ctrls.rdQLenPdf::17                      0                       # What read queue length does an incoming req see
system.mem_ctrls.rdQLenPdf::18                      0                       # What read queue length does an incoming req see
system.mem_ctrls.rdQLenPdf::19                      0                       # What read queue length does an incoming req see
system.mem_ctrls.rdQLenPdf::20                      0                       # What read queue length does an incoming req see
system.mem_ctrls.rdQLenPdf::21                      0                       # What read queue length does an incoming req see
system.mem_ctrls.rdQLenPdf::22                      0                       # What read queue length does an incoming req see
system.mem_ctrls.rdQLenPdf::23                      0                       # What read queue length does an incoming req see
system.mem_ctrls.rdQLenPdf::24                      0                       # What read queue length does an incoming req see
system.mem_ctrls.rdQLenPdf::25                      0                       # What read queue length does an incoming req see
system.mem_ctrls.rdQLenPdf::26                      0                       # What read queue length does an incoming req see
system.mem_ctrls.rdQLenPdf::27                      0                       # What read queue length does an incoming req see
system.mem_ctrls.rdQLenPdf::28                      0                       # What read queue length does an incoming req see
system.mem_ctrls.rdQLenPdf::29                      0                       # What read queue length does an incoming req see
system.mem_ctrls.rdQLenPdf::30                      0                       # What read queue length does an incoming req see
system.mem_ctrls.rdQLenPdf::31                      0                       # What read queue length does an incoming req see
system.mem_ctrls.wrQLenPdf::0                       0                       # What write queue length does an incoming req see
system.mem_ctrls.wrQLenPdf::1                       0                       # What write queue length does an incoming req see
system.mem_ctrls.wrQLenPdf::2                       0                       # What write queue length does an incoming req see
system.mem_ctrls.wrQLenPdf::3                       0                       # What write queue length does an incoming req see
system.mem_ctrls.wrQLenPdf::4                       0                       # What write queue length does an incoming req see
system.mem_ctrls.wrQLenPdf::5                       0                       # What write queue length does an incoming req see
system.mem_ctrls.wrQLenPdf::6                       0                       # What write queue length does an incoming req see
system.mem_ctrls.wrQLenPdf::7                       0                       # What write queue length does an incoming req see
system.mem_ctrls.wrQLenPdf::8                       0                       # What write queue length does an incoming req see
system.mem_ctrls.wrQLenPdf::9                       0                       # What write queue length does an incoming req see
system.mem_ctrls.wrQLenPdf::10                      0                       # What write queue length does an incoming req see
system.mem_ctrls.wrQLenPdf::11                      0                       # What write queue length does an incoming req see
system.mem_ctrls.wrQLenPdf::12                      0                       # What write queue length does an incoming req see
system.mem_ctrls.wrQLenPdf::13                      0                       # What write queue length does an incoming req see
system.mem_ctrls.wrQLenPdf::14                      0                       # What write queue length does an incoming req see
system.mem_ctrls.wrQLenPdf::15                      0                       # What write queue length does an incoming req see
system.mem_ctrls.wrQLenPdf::16                      0                       # What write queue length does an incoming req see
system.mem_ctrls.wrQLenPdf::17                      0                       # What write queue length does an incoming req see
system.mem_ctrls.wrQLenPdf::18                      0                       # What write queue length does an incoming req see
system.mem_ctrls.wrQLenPdf::19                      0                       # What write queue length does an incoming req see
system.mem_ctrls.wrQLenPdf::20                      0                       # What write queue length does an incoming req see
system.mem_ctrls.wrQLenPdf::21                      0                       # What write queue length does an incoming req see
system.mem_ctrls.wrQLenPdf::22                      0                       # What write queue length does an incoming req see
system.mem_ctrls.wrQLenPdf::23                      0                       # What write queue length does an incoming req see
system.mem_ctrls.wrQLenPdf::24                      0                       # What write queue length does an incoming req see
system.mem_ctrls.wrQLenPdf::25                      0                       # What write queue length does an incoming req see
system.mem_ctrls.wrQLenPdf::26                      0                       # What write queue length does an incoming req see
system.mem_ctrls.wrQLenPdf::27                      0                       # What write queue length does an incoming req see
system.mem_ctrls.wrQLenPdf::28                      0                       # What write queue length does an incoming req see
system.mem_ctrls.wrQLenPdf::29                      0                       # What write queue length does an incoming req see
system.mem_ctrls.wrQLenPdf::30                      0                       # What write queue length does an incoming req see
system.mem_ctrls.wrQLenPdf::31                      0                       # What write queue length does an incoming req see
system.mem_ctrls.wrQLenPdf::32                      0                       # What write queue length does an incoming req see
system.mem_ctrls.wrQLenPdf::33                      0                       # What write queue length does an incoming req see
system.mem_ctrls.wrQLenPdf::34                      0                       # What write queue length does an incoming req see
system.mem_ctrls.wrQLenPdf::35                      0                       # What write queue length does an incoming req see
system.mem_ctrls.wrQLenPdf::36                      0                       # What write queue length does an incoming req see
system.mem_ctrls.wrQLenPdf::37                      0                       # What write queue length does an incoming req see
system.mem_ctrls.wrQLenPdf::38                      0                       # What write queue length does an incoming req see
system.mem_ctrls.wrQLenPdf::39                      0                       # What write queue length does an incoming req see
system.mem_ctrls.wrQLenPdf::40                      0                       # What write queue length does an incoming req see
system.mem_ctrls.wrQLenPdf::41                      0                       # What write queue length does an incoming req see
system.mem_ctrls.wrQLenPdf::42                      0                       # What write queue length does an incoming req see
system.mem_ctrls.wrQLenPdf::43                      0                       # What write queue length does an incoming req see
system.mem_ctrls.wrQLenPdf::44                      0                       # What write queue length does an incoming req see
system.mem_ctrls.wrQLenPdf::45                      0                       # What write queue length does an incoming req see
system.mem_ctrls.wrQLenPdf::46                      0                       # What write queue length does an incoming req see
system.mem_ctrls.wrQLenPdf::47                      0                       # What write queue length does an incoming req see
system.mem_ctrls.wrQLenPdf::48                      0                       # What write queue length does an incoming req see
system.mem_ctrls.wrQLenPdf::49                      0                       # What write queue length does an incoming req see
system.mem_ctrls.wrQLenPdf::50                      0                       # What write queue length does an incoming req see
system.mem_ctrls.wrQLenPdf::51                      0                       # What write queue length does an incoming req see
system.mem_ctrls.wrQLenPdf::52                      0                       # What write queue length does an incoming req see
system.mem_ctrls.wrQLenPdf::53                      0                       # What write queue length does an incoming req see
system.mem_ctrls.wrQLenPdf::54                      0                       # What write queue length does an incoming req see
system.mem_ctrls.wrQLenPdf::55                      0                       # What write queue length does an incoming req see
system.mem_ctrls.wrQLenPdf::56                      0                       # What write queue length does an incoming req see
system.mem_ctrls.wrQLenPdf::57                      0                       # What write queue length does an incoming req see
system.mem_ctrls.wrQLenPdf::58                      0                       # What write queue length does an incoming req see
system.mem_ctrls.wrQLenPdf::59                      0                       # What write queue length does an incoming req see
system.mem_ctrls.wrQLenPdf::60                      0                       # What write queue length does an incoming req see
system.mem_ctrls.wrQLenPdf::61                      0                       # What write queue length does an incoming req see
system.mem_ctrls.wrQLenPdf::62                      0                       # What write queue length does an incoming req see
system.mem_ctrls.wrQLenPdf::63                      0                       # What write queue length does an incoming req see
system.mem_ctrls.bytesPerActivate::samples          709                       # Bytes accessed per row activation
system.mem_ctrls.bytesPerActivate::mean    299.238364                       # Bytes accessed per row activation
system.mem_ctrls.bytesPerActivate::gmean   210.601495                       # Bytes accessed per row activation
system.mem_ctrls.bytesPerActivate::stdev   282.896531                       # Bytes accessed per row activation
system.mem_ctrls.bytesPerActivate::0-127          130     18.34%     18.34% # Bytes accessed per row activation
system.mem_ctrls.bytesPerActivate::128-255          252     35.54%     53.88% # Bytes accessed per row activation
system.mem_ctrls.bytesPerActivate::256-383          186     26.23%     80.11% # Bytes accessed per row activation
system.mem_ctrls.bytesPerActivate::384-511           21      2.96%     83.07% # Bytes accessed per row activation
system.mem_ctrls.bytesPerActivate::512-639           19      2.68%     85.75% # Bytes accessed per row activation
system.mem_ctrls.bytesPerActivate::640-767           19      2.68%     88.43% # Bytes accessed per row activation
system.mem_ctrls.bytesPerActivate::768-895            8      1.13%     89.56% # Bytes accessed per row activation
system.mem_ctrls.bytesPerActivate::896-1023            5      0.71%     90.27% # Bytes accessed per row activation
system.mem_ctrls.bytesPerActivate::1024-1151           69      9.73%    100.00% # Bytes accessed per row activation
system.mem_ctrls.bytesPerActivate::total          709                       # Bytes accessed per row activation
system.mem_ctrls.masterReadBytes::.cpu.inst        53184                       # Per-master bytes read from memory
system.mem_ctrls.masterReadBytes::.cpu.data       160384                       # Per-master bytes read from memory
system.mem_ctrls.masterReadRate::.cpu.inst 28935917.273531347513                       # Per-master bytes read from memory rate (Bytes/sec)
system.mem_ctrls.masterReadRate::.cpu.data 87260419.599843025208                       # Per-master bytes read from memory rate (Bytes/sec)
system.mem_ctrls.masterReadAccesses::.cpu.inst          831                       # Per-master read serviced memory accesses
system.mem_ctrls.masterReadAccesses::.cpu.data         2506                       # Per-master read serviced memory accesses
system.mem_ctrls.masterReadTotalLat::.cpu.inst     26738841                       # Per-master read total memory access latency
system.mem_ctrls.masterReadTotalLat::.cpu.data     90327014                       # Per-master read total memory access latency
system.mem_ctrls.masterReadAvgLat::.cpu.inst     32176.70                       # Per-master read average memory access latency
system.mem_ctrls.masterReadAvgLat::.cpu.data     36044.30                       # Per-master read average memory access latency
system.mem_ctrls.totQLat                     54497105                       # Total ticks spent queuing
system.mem_ctrls.totMemAccLat               117065855                       # Total ticks spent from burst creation until serviced by the DRAM
system.mem_ctrls.totBusLat                   16685000                       # Total ticks spent in databus transfers
system.mem_ctrls.avgQLat                     16331.17                       # Average queueing delay per DRAM burst
system.mem_ctrls.avgBusLat                    5000.00                       # Average bus latency per DRAM burst
system.mem_ctrls.avgMemAccLat                35081.17                       # Average memory access latency per DRAM burst
system.mem_ctrls.avgRdBW                       116.20                       # Average DRAM read bandwidth in MiByte/s
system.mem_ctrls.avgWrBW                         0.00                       # Average achieved write bandwidth in MiByte/s
system.mem_ctrls.avgRdBWSys                    116.20                       # Average system read bandwidth in MiByte/s
system.mem_ctrls.avgWrBWSys                      0.00                       # Average system write bandwidth in MiByte/s
system.mem_ctrls.peakBW                      12800.00                       # Theoretical peak bandwidth in MiByte/s
system.mem_ctrls.busUtil                         0.91                       # Data bus utilization in percentage
system.mem_ctrls.busUtilRead                     0.91                       # Data bus utilization in percentage for reads
system.mem_ctrls.busUtilWrite                    0.00                       # Data bus utilization in percentage for writes
system.mem_ctrls.avgRdQLen                       1.04                       # Average read queue length when enqueuing
system.mem_ctrls.avgWrQLen                       0.00                       # Average write queue length when enqueuing
system.mem_ctrls.readRowHits                     2618                       # Number of row buffer hits during reads
system.mem_ctrls.writeRowHits                       0                       # Number of row buffer hits during writes
system.mem_ctrls.readRowHitRate                 78.45                       # Row buffer hit rate for reads
system.mem_ctrls.writeRowHitRate                  nan                       # Row buffer hit rate for writes
system.mem_ctrls.avgGap                     550764.91                       # Average gap between requests
system.mem_ctrls.pageHitRate                    78.45                       # Row buffer hit rate, read and write combined
system.mem_ctrls_0.actEnergy                  3070200                       # Energy for activate commands per rank (pJ)
system.mem_ctrls_0.preEnergy                  1616670                       # Energy for precharge commands per rank (pJ)
system.mem_ctrls_0.readEnergy                14572740                       # Energy for read commands per rank (pJ)
system.mem_ctrls_0.writeEnergy                      0                       # Energy for write commands per rank (pJ)
system.mem_ctrls_0.refreshEnergy         117396240.000000                       # Energy for refresh commands per rank (pJ)
system.mem_ctrls_0.actBackEnergy             45142860                       # Energy for active background per rank (pJ)
system.mem_ctrls_0.preBackEnergy              4877280                       # Energy for precharge background per rank (pJ)
system.mem_ctrls_0.actPowerDownEnergy       509565750                       # Energy for active power-down per rank (pJ)
system.mem_ctrls_0.prePowerDownEnergy       102081120                       # Energy for precharge power-down per rank (pJ)
system.mem_ctrls_0.selfRefreshEnergy         90048960                       # Energy for self refresh per rank (pJ)
system.mem_ctrls_0.totalEnergy              888371820                       # Total energy per rank (pJ)
system.mem_ctrls_0.averagePower            483.338100                       # Core power per rank (mW)
system.mem_ctrls_0.totalIdleTime           1726181463                       # Total Idle time Per DRAM Rank
system.mem_ctrls_0.memoryStateTime::IDLE      7489945                       # Time in different power states
system.mem_ctrls_0.memoryStateTime::REF      49660000                       # Time in different power states
system.mem_ctrls_0.memoryStateTime::SREF    342992005                       # Time in different power states
system.mem_ctrls_0.memoryStateTime::PRE_PDN    265838584                       # Time in different power states
system.mem_ctrls_0.memoryStateTime::ACT      54500866                       # Time in different power states
system.mem_ctrls_0.memoryStateTime::ACT_PDN   1117511137                       # Time in different power states
system.mem_ctrls_1.actEnergy                  2063460                       # Energy for activate commands per rank (pJ)
system.mem_ctrls_1.preEnergy                  1073985                       # Energy for precharge commands per rank (pJ)
system.mem_ctrls_1.readEnergy                 9253440                       # Energy for read commands per rank (pJ)
system.mem_ctrls_1.writeEnergy                      0                       # Energy for write commands per rank (pJ)
system.mem_ctrls_1.refreshEnergy         53473680.000000                       # Energy for refresh commands per rank (pJ)
system.mem_ctrls_1.actBackEnergy             25286340                       # Energy for active background per rank (pJ)
system.mem_ctrls_1.preBackEnergy              1887360                       # Energy for precharge background per rank (pJ)
system.mem_ctrls_1.actPowerDownEnergy       221388570                       # Energy for active power-down per rank (pJ)
system.mem_ctrls_1.prePowerDownEnergy        52016160                       # Energy for precharge power-down per rank (pJ)
system.mem_ctrls_1.selfRefreshEnergy        281465580                       # Energy for self refresh per rank (pJ)
system.mem_ctrls_1.totalEnergy              647908575                       # Total energy per rank (pJ)
system.mem_ctrls_1.averagePower            352.508817                       # Core power per rank (mW)
system.mem_ctrls_1.totalIdleTime           1777555837                       # Total Idle time Per DRAM Rank
system.mem_ctrls_1.memoryStateTime::IDLE      2469341                       # Time in different power states
system.mem_ctrls_1.memoryStateTime::REF      22620000                       # Time in different power states
system.mem_ctrls_1.memoryStateTime::SREF   1156664323                       # Time in different power states
system.mem_ctrls_1.memoryStateTime::PRE_PDN    135440410                       # Time in different power states
system.mem_ctrls_1.memoryStateTime::ACT      35297405                       # Time in different power states
system.mem_ctrls_1.memoryStateTime::ACT_PDN    485501058                       # Time in different power states
system.pwrStateResidencyTicks::UNDEFINED   1837992537                       # Cumulative time (in ticks) in various power states
system.cpu.branchPred.lookups                 1380230                       # Number of BP lookups
system.cpu.branchPred.condPredicted           1380230                       # Number of conditional branches predicted
system.cpu.branchPred.condIncorrect            119159                       # Number of conditional branches incorrect
system.cpu.branchPred.BTBLookups               795566                       # Number of BTB lookups
system.cpu.branchPred.BTBHits                       0                       # Number of BTB hits
system.cpu.branchPred.BTBCorrect                    0                       # Number of correct BTB predictions (this stat may not work properly.
system.cpu.branchPred.BTBHitPct              0.000000                       # BTB Hit Percentage
system.cpu.branchPred.usedRAS                   19538                       # Number of times the RAS was used to get a target.
system.cpu.branchPred.RASInCorrect               3460                       # Number of incorrect RAS predictions.
system.cpu.branchPred.indirectLookups          795566                       # Number of indirect predictor lookups.
system.cpu.branchPred.indirectHits             407390                       # Number of indirect target hits.
system.cpu.branchPred.indirectMisses           388176                       # Number of indirect misses.
system.cpu.branchPredindirectMispredicted        45264                       # Number of mispredicted indirect branches.
system.cpu_voltage_domain.voltage                   1                       # Voltage in Volts
system.cpu_clk_domain.clock                       667                       # Clock period in ticks
system.cpu.dtb.walker.pwrStateResidencyTicks::UNDEFINED   1837992537                       # Cumulative time (in ticks) in various power states
system.cpu.dtb.rdAccesses                      562718                       # TLB accesses on read requests
system.cpu.dtb.wrAccesses                      397789                       # TLB accesses on write requests
system.cpu.dtb.rdMisses                           464                       # TLB misses on read requests
system.cpu.dtb.wrMisses                            91                       # TLB misses on write requests
system.cpu.apic_clk_domain.clock                10672                       # Clock period in ticks
system.cpu.interrupts.pwrStateResidencyTicks::UNDEFINED   1837992537                       # Cumulative time (in ticks) in various power states
system.cpu.itb.walker.pwrStateResidencyTicks::UNDEFINED   1837992537                       # Cumulative time (in ticks) in various power states
system.cpu.itb.rdAccesses                           0                       # TLB accesses on read requests
system.cpu.itb.wrAccesses                      363199                       # TLB accesses on write requests
system.cpu.itb.rdMisses                             0                       # TLB misses on read requests
system.cpu.itb.wrMisses                           117                       # TLB misses on write requests
system.cpu.workload.numSyscalls                    27                       # Number of system calls
system.cpu.pwrStateResidencyTicks::ON      1837992537                       # Cumulative time (in ticks) in various power states
system.cpu.numCycles                          2755612                       # number of cpu cycles simulated
system.cpu.numWorkItemsStarted                      0                       # number of work items this cpu started
system.cpu.numWorkItemsCompleted                    0                       # number of work items this cpu completed
system.cpu.fetch.icacheStallCycles             440533                       # Number of cycles fetch is stalled on an Icache miss
system.cpu.fetch.Insts                        7900443                       # Number of instructions fetch has processed
system.cpu.fetch.Branches                     1380230                       # Number of branches that fetch encountered
system.cpu.fetch.predictedBranches             426928                       # Number of branches that fetch has predicted taken
system.cpu.fetch.Cycles                       2148433                       # Number of cycles fetch has run and was not squashing or blocked
system.cpu.fetch.SquashCycles                  238502                       # Number of cycles fetch has spent squashing
system.cpu.fetch.TlbCycles                        136                       # Number of cycles fetch has spent waiting for tlb
system.cpu.fetch.MiscStallCycles                   20                       # Number of cycles fetch has spent waiting on interrupts, or bad addresses, or out of MSHRs
system.cpu.fetch.PendingTrapStallCycles           306                       # Number of stall cycles due to pending traps
system.cpu.fetch.PendingQuiesceStallCycles           24                       # Number of stall cycles due to pending quiesce instructions
system.cpu.fetch.IcacheWaitRetryStallCycles           15                       # Number of stall cycles due to full MSHR
system.cpu.fetch.CacheLines                    363156                       # Number of cache lines fetched
system.cpu.fetch.IcacheSquashes                 20038                       # Number of outstanding Icache misses that were squashed
system.cpu.fetch.rateDist::samples            2708718                       # Number of instructions fetched each cycle (Total)
system.cpu.fetch.rateDist::mean              4.631214                       # Number of instructions fetched each cycle (Total)
system.cpu.fetch.rateDist::stdev             3.624834                       # Number of instructions fetched each cycle (Total)
system.cpu.fetch.rateDist::underflows               0      0.00%      0.00% # Number of instructions fetched each cycle (Total)
system.cpu.fetch.rateDist::0                   854703     31.55%     31.55% # Number of instructions fetched each cycle (Total)
system.cpu.fetch.rateDist::1                   114061      4.21%     35.76% # Number of instructions fetched each cycle (Total)
system.cpu.fetch.rateDist::2                    36740      1.36%     37.12% # Number of instructions fetched each cycle (Total)
system.cpu.fetch.rateDist::3                    78940      2.91%     40.04% # Number of instructions fetched each cycle (Total)
system.cpu.fetch.rateDist::4                   111592      4.12%     44.16% # Number of instructions fetched each cycle (Total)
system.cpu.fetch.rateDist::5                    56340      2.08%     46.24% # Number of instructions fetched each cycle (Total)
system.cpu.fetch.rateDist::6                    97151      3.59%     49.82% # Number of instructions fetched each cycle (Total)
system.cpu.fetch.rateDist::7                    64211      2.37%     52.19% # Number of instructions fetched each cycle (Total)
system.cpu.fetch.rateDist::8                  1294980     47.81%    100.00% # Number of instructions fetched each cycle (Total)
system.cpu.fetch.rateDist::overflows                0      0.00%    100.00% # Number of instructions fetched each cycle (Total)
system.cpu.fetch.rateDist::min_value                0                       # Number of instructions fetched each cycle (Total)
system.cpu.fetch.rateDist::max_value                8                       # Number of instructions fetched each cycle (Total)
system.cpu.fetch.rateDist::total              2708718                       # Number of instructions fetched each cycle (Total)
system.cpu.fetch.branchRate                  0.500880                       # Number of branch fetches per cycle
system.cpu.fetch.rate                        2.867038                       # Number of inst fetches per cycle
system.cpu.decode.IdleCycles                   429004                       # Number of cycles decode is idle
system.cpu.decode.BlockedCycles                644282                       # Number of cycles decode is blocked
system.cpu.decode.RunCycles                   1357402                       # Number of cycles decode is running
system.cpu.decode.UnblockCycles                158779                       # Number of cycles decode is unblocking
system.cpu.decode.SquashCycles                 119251                       # Number of cycles decode is squashing
system.cpu.decode.DecodedInsts               11357637                       # Number of instructions handled by decode
system.cpu.rename.SquashCycles                 119251                       # Number of cycles rename is squashing
system.cpu.rename.IdleCycles                   528621                       # Number of cycles rename is idle
system.cpu.rename.BlockCycles                  585954                       # Number of cycles rename is blocking
system.cpu.rename.serializeStallCycles           2380                       # count of cycles rename stalled for serializing inst
system.cpu.rename.RunCycles                   1372997                       # Number of cycles rename is running
system.cpu.rename.UnblockCycles                 99515                       # Number of cycles rename is unblocking
system.cpu.rename.RenamedInsts               10659848                       # Number of instructions processed by rename
system.cpu.rename.ROBFullEvents                  2623                       # Number of times rename has blocked due to ROB full
system.cpu.rename.IQFullEvents                   8039                       # Number of times rename has blocked due to IQ full
system.cpu.rename.LQFullEvents                    446                       # Number of times rename has blocked due to LQ full
system.cpu.rename.SQFullEvents                  43168                       # Number of times rename has blocked due to SQ full
system.cpu.rename.RenamedOperands            13520962                       # Number of destination operands rename has renamed
system.cpu.rename.RenameLookups              25470372                       # Number of register rename lookups that rename has made
system.cpu.rename.int_rename_lookups         15616851                       # Number of integer rename lookups
system.cpu.rename.fp_rename_lookups             59545                       # Number of floating rename lookups
system.cpu.rename.CommittedMaps               6107409                       # Number of HB maps that are committed
system.cpu.rename.UndoneMaps                  7413553                       # Number of HB maps that are undone due to squashing
system.cpu.rename.serializingInsts                 88                       # count of serializing insts renamed
system.cpu.rename.tempSerializingInsts             59                       # count of temporary serializing insts renamed
system.cpu.rename.skidInsts                    415366                       # count of insts added to the skid buffer
system.cpu.memDep0.insertedLoads               704275                       # Number of loads inserted to the mem dependence unit.
system.cpu.memDep0.insertedStores              577111                       # Number of stores inserted to the mem dependence unit.
system.cpu.memDep0.conflictingLoads             79507                       # Number of conflicting loads.
system.cpu.memDep0.conflictingStores            51819                       # Number of conflicting stores.
system.cpu.iq.iqInstsAdded                    9230527                       # Number of instructions added to the IQ (excludes non-spec)
system.cpu.iq.iqNonSpecInstsAdded                  75                       # Number of non-speculative instructions added to the IQ
system.cpu.iq.iqInstsIssued                   7730335                       # Number of instructions issued
system.cpu.iq.iqSquashedInstsIssued            235552                       # Number of squashed instructions issued
system.cpu.iq.iqSquashedInstsExamined         4349432                       # Number of squashed instructions iterated over during squash; mainly for profiling
system.cpu.iq.iqSquashedOperandsExamined      5410155                       # Number of squashed operands that are examined and possibly removed from graph
system.cpu.iq.iqSquashedNonSpecRemoved             48                       # Number of squashed non-spec instructions that were removed
system.cpu.iq.issued_per_cycle::samples       2708718                       # Number of insts issued each cycle
system.cpu.iq.issued_per_cycle::mean         2.853872                       # Number of insts issued each cycle
system.cpu.iq.issued_per_cycle::stdev        2.877975                       # Number of insts issued each cycle
system.cpu.iq.issued_per_cycle::underflows            0      0.00%      0.00% # Number of insts issued each cycle
system.cpu.iq.issued_per_cycle::0             1175434     43.39%     43.39% # Number of insts issued each cycle
system.cpu.iq.issued_per_cycle::1               73021      2.70%     46.09% # Number of insts issued each cycle
system.cpu.iq.issued_per_cycle::2              120396      4.44%     50.54% # Number of insts issued each cycle
system.cpu.iq.issued_per_cycle::3              146609      5.41%     55.95% # Number of insts issued each cycle
system.cpu.iq.issued_per_cycle::4              249839      9.22%     65.17% # Number of insts issued each cycle
system.cpu.iq.issued_per_cycle::5              138336      5.11%     70.28% # Number of insts issued each cycle
system.cpu.iq.issued_per_cycle::6              483421     17.85%     88.12% # Number of insts issued each cycle
system.cpu.iq.issued_per_cycle::7              188163      6.95%     95.07% # Number of insts issued each cycle
system.cpu.iq.issued_per_cycle::8              133499      4.93%    100.00% # Number of insts issued each cycle
system.cpu.iq.issued_per_cycle::overflows            0      0.00%    100.00% # Number of insts issued each cycle
system.cpu.iq.issued_per_cycle::min_value            0                       # Number of insts issued each cycle
system.cpu.iq.issued_per_cycle::max_value            8                       # Number of insts issued each cycle
system.cpu.iq.issued_per_cycle::total         2708718                       # Number of insts issued each cycle
system.cpu.iq.fu_full::No_OpClass                   0      0.00%      0.00% # attempts to use FU when none available
system.cpu.iq.fu_full::IntAlu                  470971     99.73%     99.73% # attempts to use FU when none available
system.cpu.iq.fu_full::IntMult                      0      0.00%     99.73% # attempts to use FU when none available
system.cpu.iq.fu_full::IntDiv                       0      0.00%     99.73% # attempts to use FU when none available
system.cpu.iq.fu_full::FloatAdd                     0      0.00%     99.73% # attempts to use FU when none available
system.cpu.iq.fu_full::FloatCmp                     0      0.00%     99.73% # attempts to use FU when none available
system.cpu.iq.fu_full::FloatCvt                     0      0.00%     99.73% # attempts to use FU when none available
system.cpu.iq.fu_full::FloatMult                    0      0.00%     99.73% # attempts to use FU when none available
system.cpu.iq.fu_full::FloatMultAcc                 0      0.00%     99.73% # attempts to use FU when none available
system.cpu.iq.fu_full::FloatDiv                     0      0.00%     99.73% # attempts to use FU when none available
system.cpu.iq.fu_full::FloatMisc                    0      0.00%     99.73% # attempts to use FU when none available
system.cpu.iq.fu_full::FloatSqrt                    0      0.00%     99.73% # attempts to use FU when none available
system.cpu.iq.fu_full::SimdAdd                      1      0.00%     99.73% # attempts to use FU when none available
system.cpu.iq.fu_full::SimdAddAcc                   0      0.00%     99.73% # attempts to use FU when none available
system.cpu.iq.fu_full::SimdAlu                     19      0.00%     99.73% # attempts to use FU when none available
system.cpu.iq.fu_full::SimdCmp                      0      0.00%     99.73% # attempts to use FU when none available
system.cpu.iq.fu_full::SimdCvt                     15      0.00%     99.73% # attempts to use FU when none available
system.cpu.iq.fu_full::SimdMisc                     2      0.00%     99.73% # attempts to use FU when none available
system.cpu.iq.fu_full::SimdMult                     0      0.00%     99.73% # attempts to use FU when none available
system.cpu.iq.fu_full::SimdMultAcc                  0      0.00%     99.73% # attempts to use FU when none available
system.cpu.iq.fu_full::SimdShift                    1      0.00%     99.73% # attempts to use FU when none available
system.cpu.iq.fu_full::SimdShiftAcc                 0      0.00%     99.73% # attempts to use FU when none available
system.cpu.iq.fu_full::SimdSqrt                     0      0.00%     99.73% # attempts to use FU when none available
system.cpu.iq.fu_full::SimdFloatAdd                 0      0.00%     99.73% # attempts to use FU when none available
system.cpu.iq.fu_full::SimdFloatAlu                 0      0.00%     99.73% # attempts to use FU when none available
system.cpu.iq.fu_full::SimdFloatCmp                 0      0.00%     99.73% # attempts to use FU when none available
system.cpu.iq.fu_full::SimdFloatCvt                 0      0.00%     99.73% # attempts to use FU when none available
system.cpu.iq.fu_full::SimdFloatDiv                 0      0.00%     99.73% # attempts to use FU when none available
system.cpu.iq.fu_full::SimdFloatMisc                0      0.00%     99.73% # attempts to use FU when none available
system.cpu.iq.fu_full::SimdFloatMult                0      0.00%     99.73% # attempts to use FU when none available
system.cpu.iq.fu_full::SimdFloatMultAcc             0      0.00%     99.73% # attempts to use FU when none available
system.cpu.iq.fu_full::SimdFloatSqrt                0      0.00%     99.73% # attempts to use FU when none available
system.cpu.iq.fu_full::SimdAes                      0      0.00%     99.73% # attempts to use FU when none available
system.cpu.iq.fu_full::SimdAesMix                   0      0.00%     99.73% # attempts to use FU when none available
system.cpu.iq.fu_full::SimdSha1Hash                 0      0.00%     99.73% # attempts to use FU when none available
system.cpu.iq.fu_full::SimdSha1Hash2                0      0.00%     99.73% # attempts to use FU when none available
system.cpu.iq.fu_full::SimdSha256Hash               0      0.00%     99.73% # attempts to use FU when none available
system.cpu.iq.fu_full::SimdSha256Hash2              0      0.00%     99.73% # attempts to use FU when none available
system.cpu.iq.fu_full::SimdShaSigma2                0      0.00%     99.73% # attempts to use FU when none available
system.cpu.iq.fu_full::SimdShaSigma3                0      0.00%     99.73% # attempts to use FU when none available
system.cpu.iq.fu_full::MemRead                    654      0.14%     99.87% # attempts to use FU when none available
system.cpu.iq.fu_full::MemWrite                   432      0.09%     99.96% # attempts to use FU when none available
system.cpu.iq.fu_full::FloatMemRead               131      0.03%     99.99% # attempts to use FU when none available
system.cpu.iq.fu_full::FloatMemWrite               40      0.01%    100.00% # attempts to use FU when none available
system.cpu.iq.fu_full::IprAccess                    0      0.00%    100.00% # attempts to use FU when none available
system.cpu.iq.fu_full::InstPrefetch                 0      0.00%    100.00% # attempts to use FU when none available
system.cpu.iq.FU_type_0::No_OpClass             49579      0.64%      0.64% # Type of FU issued
system.cpu.iq.FU_type_0::IntAlu               6653677     86.07%     86.71% # Type of FU issued
system.cpu.iq.FU_type_0::IntMult                   24      0.00%     86.71% # Type of FU issued
system.cpu.iq.FU_type_0::IntDiv                  1159      0.01%     86.73% # Type of FU issued
system.cpu.iq.FU_type_0::FloatAdd                 192      0.00%     86.73% # Type of FU issued
system.cpu.iq.FU_type_0::FloatCmp                   0      0.00%     86.73% # Type of FU issued
system.cpu.iq.FU_type_0::FloatCvt                   0      0.00%     86.73% # Type of FU issued
system.cpu.iq.FU_type_0::FloatMult                  0      0.00%     86.73% # Type of FU issued
system.cpu.iq.FU_type_0::FloatMultAcc               0      0.00%     86.73% # Type of FU issued
system.cpu.iq.FU_type_0::FloatDiv                   0      0.00%     86.73% # Type of FU issued
system.cpu.iq.FU_type_0::FloatMisc                  0      0.00%     86.73% # Type of FU issued
system.cpu.iq.FU_type_0::FloatSqrt                  0      0.00%     86.73% # Type of FU issued
system.cpu.iq.FU_type_0::SimdAdd                  400      0.01%     86.74% # Type of FU issued
system.cpu.iq.FU_type_0::SimdAddAcc                 0      0.00%     86.74% # Type of FU issued
system.cpu.iq.FU_type_0::SimdAlu                  872      0.01%     86.75% # Type of FU issued
system.cpu.iq.FU_type_0::SimdCmp                    6      0.00%     86.75% # Type of FU issued
system.cpu.iq.FU_type_0::SimdCvt                 1008      0.01%     86.76% # Type of FU issued
system.cpu.iq.FU_type_0::SimdMisc                 609      0.01%     86.77% # Type of FU issued
system.cpu.iq.FU_type_0::SimdMult                   0      0.00%     86.77% # Type of FU issued
system.cpu.iq.FU_type_0::SimdMultAcc                0      0.00%     86.77% # Type of FU issued
system.cpu.iq.FU_type_0::SimdShift                244      0.00%     86.77% # Type of FU issued
system.cpu.iq.FU_type_0::SimdShiftAcc               0      0.00%     86.77% # Type of FU issued
system.cpu.iq.FU_type_0::SimdSqrt                   0      0.00%     86.77% # Type of FU issued
system.cpu.iq.FU_type_0::SimdFloatAdd               0      0.00%     86.77% # Type of FU issued
system.cpu.iq.FU_type_0::SimdFloatAlu               0      0.00%     86.77% # Type of FU issued
system.cpu.iq.FU_type_0::SimdFloatCmp               0      0.00%     86.77% # Type of FU issued
system.cpu.iq.FU_type_0::SimdFloatCvt               0      0.00%     86.77% # Type of FU issued
system.cpu.iq.FU_type_0::SimdFloatDiv               0      0.00%     86.77% # Type of FU issued
system.cpu.iq.FU_type_0::SimdFloatMisc              0      0.00%     86.77% # Type of FU issued
system.cpu.iq.FU_type_0::SimdFloatMult              0      0.00%     86.77% # Type of FU issued
system.cpu.iq.FU_type_0::SimdFloatMultAcc            0      0.00%     86.77% # Type of FU issued
system.cpu.iq.FU_type_0::SimdFloatSqrt              0      0.00%     86.77% # Type of FU issued
system.cpu.iq.FU_type_0::SimdAes                    0      0.00%     86.77% # Type of FU issued
system.cpu.iq.FU_type_0::SimdAesMix                 0      0.00%     86.77% # Type of FU issued
system.cpu.iq.FU_type_0::SimdSha1Hash               0      0.00%     86.77% # Type of FU issued
system.cpu.iq.FU_type_0::SimdSha1Hash2              0      0.00%     86.77% # Type of FU issued
system.cpu.iq.FU_type_0::SimdSha256Hash             0      0.00%     86.77% # Type of FU issued
system.cpu.iq.FU_type_0::SimdSha256Hash2            0      0.00%     86.77% # Type of FU issued
system.cpu.iq.FU_type_0::SimdShaSigma2              0      0.00%     86.77% # Type of FU issued
system.cpu.iq.FU_type_0::SimdShaSigma3              0      0.00%     86.77% # Type of FU issued
system.cpu.iq.FU_type_0::MemRead               541756      7.01%     93.78% # Type of FU issued
system.cpu.iq.FU_type_0::MemWrite              393644      5.09%     98.87% # Type of FU issued
system.cpu.iq.FU_type_0::FloatMemRead           45347      0.59%     99.46% # Type of FU issued
system.cpu.iq.FU_type_0::FloatMemWrite          41818      0.54%    100.00% # Type of FU issued
system.cpu.iq.FU_type_0::IprAccess                  0      0.00%    100.00% # Type of FU issued
system.cpu.iq.FU_type_0::InstPrefetch               0      0.00%    100.00% # Type of FU issued
system.cpu.iq.FU_type_0::total                7730335                       # Type of FU issued
system.cpu.iq.rate                           2.805306                       # Inst issue rate
system.cpu.iq.fu_busy_cnt                      472266                       # FU busy when requested
system.cpu.iq.fu_busy_rate                   0.061093                       # FU busy rate (busy events/executed inst)
system.cpu.iq.int_inst_queue_reads           18695773                       # Number of integer instruction queue reads
system.cpu.iq.int_inst_queue_writes          13469789                       # Number of integer instruction queue writes
system.cpu.iq.int_inst_queue_wakeup_accesses      7365645                       # Number of integer instruction queue wakeup accesses
system.cpu.iq.fp_inst_queue_reads              181433                       # Number of floating instruction queue reads
system.cpu.iq.fp_inst_queue_writes             110344                       # Number of floating instruction queue writes
system.cpu.iq.fp_inst_queue_wakeup_accesses        87227                       # Number of floating instruction queue wakeup accesses
system.cpu.iq.vec_inst_queue_reads                  0                       # Number of vector instruction queue reads
system.cpu.iq.vec_inst_queue_writes                 0                       # Number of vector instruction queue writes
system.cpu.iq.vec_inst_queue_wakeup_accesses            0                       # Number of vector instruction queue wakeup accesses
system.cpu.iq.int_alu_accesses                8062253                       # Number of integer alu accesses
system.cpu.iq.fp_alu_accesses                   90769                       # Number of floating point alu accesses
system.cpu.iq.vec_alu_accesses                      0                       # Number of vector alu accesses
system.cpu.iew.lsq.thread0.forwLoads            29125                       # Number of loads that had data forwarded from stores
system.cpu.iew.lsq.thread0.invAddrLoads             0                       # Number of loads ignored due to an invalid address
system.cpu.iew.lsq.thread0.squashedLoads       284872                       # Number of loads squashed
system.cpu.iew.lsq.thread0.ignoredResponses          148                       # Number of memory responses ignored because the instruction is squashed
system.cpu.iew.lsq.thread0.memOrderViolation          104                       # Number of memory ordering violations
system.cpu.iew.lsq.thread0.squashedStores       268573                       # Number of stores squashed
system.cpu.iew.lsq.thread0.invAddrSwpfs             0                       # Number of software prefetches ignored due to an invalid address
system.cpu.iew.lsq.thread0.blockedLoads             0                       # Number of blocked loads due to partial load-store forwarding
system.cpu.iew.lsq.thread0.rescheduledLoads            6                       # Number of loads that were rescheduled
system.cpu.iew.lsq.thread0.cacheBlocked           238                       # Number of times an access to memory failed due to the cache being blocked
system.cpu.iew.iewIdleCycles                        0                       # Number of cycles IEW is idle
system.cpu.iew.iewSquashCycles                 119251                       # Number of cycles IEW is squashing
system.cpu.iew.iewBlockCycles                  540549                       # Number of cycles IEW is blocking
system.cpu.iew.iewUnblockCycles                  5210                       # Number of cycles IEW is unblocking
system.cpu.iew.iewDispatchedInsts             9230602                       # Number of instructions dispatched to IQ
system.cpu.iew.iewDispSquashedInsts              6868                       # Number of squashed instructions skipped by dispatch
system.cpu.iew.iewDispLoadInsts                704275                       # Number of dispatched load instructions
system.cpu.iew.iewDispStoreInsts               577111                       # Number of dispatched store instructions
system.cpu.iew.iewDispNonSpecInsts                 56                       # Number of dispatched non-speculative instructions
system.cpu.iew.iewIQFullEvents                    644                       # Number of times the IQ has become full, causing a stall
system.cpu.iew.iewLSQFullEvents                  4320                       # Number of times the LSQ has become full, causing a stall
system.cpu.iew.memOrderViolationEvents            104                       # Number of memory order violations
system.cpu.iew.predictedTakenIncorrect          47378                       # Number of branches that were predicted taken incorrectly
system.cpu.iew.predictedNotTakenIncorrect        87677                       # Number of branches that were predicted not taken incorrectly
system.cpu.iew.branchMispredicts               135055                       # Number of branch mispredicts detected at execute
system.cpu.iew.iewExecutedInsts               7539130                       # Number of executed instructions
system.cpu.iew.iewExecLoadInsts                562699                       # Number of load instructions executed
system.cpu.iew.iewExecSquashedInsts            191205                       # Number of squashed instructions skipped in execute
system.cpu.iew.exec_swp                             0                       # number of swp insts executed
system.cpu.iew.exec_nop                             0                       # number of nop insts executed
system.cpu.iew.exec_refs                       960485                       # number of memory reference insts executed
system.cpu.iew.exec_branches                   777514                       # Number of branches executed
system.cpu.iew.exec_stores                     397786                       # Number of stores executed
system.cpu.iew.exec_rate                     2.735919                       # Inst execution rate
system.cpu.iew.wb_sent                        7503666                       # cumulative count of insts sent to commit
system.cpu.iew.wb_count                       7452872                       # cumulative count of insts written-back
system.cpu.iew.wb_producers                   5430084                       # num instructions producing a value
system.cpu.iew.wb_consumers                   7967289                       # num instructions consuming a value
system.cpu.iew.wb_rate                       2.704616                       # insts written-back per cycle
system.cpu.iew.wb_fanout                     0.681547                       # average fanout of values written-back
system.cpu.commit.commitSquashedInsts         4349502                       # The number of squashed insts skipped by commit
system.cpu.commit.commitNonSpecStalls              27                       # The number of times commit has been forced to stall to communicate backwards
system.cpu.commit.branchMispredicts            119177                       # The number of times a branch was mispredicted
system.cpu.commit.committed_per_cycle::samples      2090653                       # Number of insts commited each cycle
system.cpu.commit.committed_per_cycle::mean     2.334758                       # Number of insts commited each cycle
system.cpu.commit.committed_per_cycle::stdev     2.937285                       # Number of insts commited each cycle
system.cpu.commit.committed_per_cycle::underflows            0      0.00%      0.00% # Number of insts commited each cycle
system.cpu.commit.committed_per_cycle::0       938443     44.89%     44.89% # Number of insts commited each cycle
system.cpu.commit.committed_per_cycle::1       257504     12.32%     57.20% # Number of insts commited each cycle
system.cpu.commit.committed_per_cycle::2       182784      8.74%     65.95% # Number of insts commited each cycle
system.cpu.commit.committed_per_cycle::3       147492      7.05%     73.00% # Number of insts commited each cycle
system.cpu.commit.committed_per_cycle::4        85547      4.09%     77.09% # Number of insts commited each cycle
system.cpu.commit.committed_per_cycle::5        56629      2.71%     79.80% # Number of insts commited each cycle
system.cpu.commit.committed_per_cycle::6        62554      2.99%     82.79% # Number of insts commited each cycle
system.cpu.commit.committed_per_cycle::7        62636      3.00%     85.79% # Number of insts commited each cycle
system.cpu.commit.committed_per_cycle::8       297064     14.21%    100.00% # Number of insts commited each cycle
system.cpu.commit.committed_per_cycle::overflows            0      0.00%    100.00% # Number of insts commited each cycle
system.cpu.commit.committed_per_cycle::min_value            0                       # Number of insts commited each cycle
system.cpu.commit.committed_per_cycle::max_value            8                       # Number of insts commited each cycle
system.cpu.commit.committed_per_cycle::total      2090653                       # Number of insts commited each cycle
system.cpu.commit.committedInsts              2993062                       # Number of instructions committed
system.cpu.commit.committedOps                4881169                       # Number of ops (including micro ops) committed
system.cpu.commit.swp_count                         0                       # Number of s/w prefetches committed
system.cpu.commit.refs                         727941                       # Number of memory references committed
system.cpu.commit.loads                        419403                       # Number of loads committed
system.cpu.commit.membars                           0                       # Number of memory barriers committed
system.cpu.commit.branches                     542927                       # Number of branches committed
system.cpu.commit.vec_insts                         0                       # Number of committed Vector instructions.
system.cpu.commit.fp_insts                      84924                       # Number of committed floating point instructions.
system.cpu.commit.int_insts                   4862924                       # Number of committed integer instructions.
system.cpu.commit.function_calls                 8778                       # Number of function calls committed.
system.cpu.commit.op_class_0::No_OpClass        16513      0.34%      0.34% # Class of committed instruction
system.cpu.commit.op_class_0::IntAlu          4133662     84.69%     85.02% # Class of committed instruction
system.cpu.commit.op_class_0::IntMult              11      0.00%     85.02% # Class of committed instruction
system.cpu.commit.op_class_0::IntDiv             1083      0.02%     85.05% # Class of committed instruction
system.cpu.commit.op_class_0::FloatAdd             18      0.00%     85.05% # Class of committed instruction
system.cpu.commit.op_class_0::FloatCmp              0      0.00%     85.05% # Class of committed instruction
system.cpu.commit.op_class_0::FloatCvt              0      0.00%     85.05% # Class of committed instruction
system.cpu.commit.op_class_0::FloatMult             0      0.00%     85.05% # Class of committed instruction
system.cpu.commit.op_class_0::FloatMultAcc            0      0.00%     85.05% # Class of committed instruction
system.cpu.commit.op_class_0::FloatDiv              0      0.00%     85.05% # Class of committed instruction
system.cpu.commit.op_class_0::FloatMisc             0      0.00%     85.05% # Class of committed instruction
system.cpu.commit.op_class_0::FloatSqrt             0      0.00%     85.05% # Class of committed instruction
system.cpu.commit.op_class_0::SimdAdd             284      0.01%     85.05% # Class of committed instruction
system.cpu.commit.op_class_0::SimdAddAcc            0      0.00%     85.05% # Class of committed instruction
system.cpu.commit.op_class_0::SimdAlu             403      0.01%     85.06% # Class of committed instruction
system.cpu.commit.op_class_0::SimdCmp               6      0.00%     85.06% # Class of committed instruction
system.cpu.commit.op_class_0::SimdCvt             664      0.01%     85.07% # Class of committed instruction
system.cpu.commit.op_class_0::SimdMisc            482      0.01%     85.08% # Class of committed instruction
system.cpu.commit.op_class_0::SimdMult              0      0.00%     85.08% # Class of committed instruction
system.cpu.commit.op_class_0::SimdMultAcc            0      0.00%     85.08% # Class of committed instruction
system.cpu.commit.op_class_0::SimdShift           102      0.00%     85.09% # Class of committed instruction
system.cpu.commit.op_class_0::SimdShiftAcc            0      0.00%     85.09% # Class of committed instruction
system.cpu.commit.op_class_0::SimdSqrt              0      0.00%     85.09% # Class of committed instruction
system.cpu.commit.op_class_0::SimdFloatAdd            0      0.00%     85.09% # Class of committed instruction
system.cpu.commit.op_class_0::SimdFloatAlu            0      0.00%     85.09% # Class of committed instruction
system.cpu.commit.op_class_0::SimdFloatCmp            0      0.00%     85.09% # Class of committed instruction
system.cpu.commit.op_class_0::SimdFloatCvt            0      0.00%     85.09% # Class of committed instruction
system.cpu.commit.op_class_0::SimdFloatDiv            0      0.00%     85.09% # Class of committed instruction
system.cpu.commit.op_class_0::SimdFloatMisc            0      0.00%     85.09% # Class of committed instruction
system.cpu.commit.op_class_0::SimdFloatMult            0      0.00%     85.09% # Class of committed instruction
system.cpu.commit.op_class_0::SimdFloatMultAcc            0      0.00%     85.09% # Class of committed instruction
system.cpu.commit.op_class_0::SimdFloatSqrt            0      0.00%     85.09% # Class of committed instruction
system.cpu.commit.op_class_0::SimdAes               0      0.00%     85.09% # Class of committed instruction
system.cpu.commit.op_class_0::SimdAesMix            0      0.00%     85.09% # Class of committed instruction
system.cpu.commit.op_class_0::SimdSha1Hash            0      0.00%     85.09% # Class of committed instruction
system.cpu.commit.op_class_0::SimdSha1Hash2            0      0.00%     85.09% # Class of committed instruction
system.cpu.commit.op_class_0::SimdSha256Hash            0      0.00%     85.09% # Class of committed instruction
system.cpu.commit.op_class_0::SimdSha256Hash2            0      0.00%     85.09% # Class of committed instruction
system.cpu.commit.op_class_0::SimdShaSigma2            0      0.00%     85.09% # Class of committed instruction
system.cpu.commit.op_class_0::SimdShaSigma3            0      0.00%     85.09% # Class of committed instruction
system.cpu.commit.op_class_0::MemRead          377781      7.74%     92.83% # Class of committed instruction
system.cpu.commit.op_class_0::MemWrite         267242      5.47%     98.30% # Class of committed instruction
system.cpu.commit.op_class_0::FloatMemRead        41622      0.85%     99.15% # Class of committed instruction
system.cpu.commit.op_class_0::FloatMemWrite        41296      0.85%    100.00% # Class of committed instruction
system.cpu.commit.op_class_0::IprAccess             0      0.00%    100.00% # Class of committed instruction
system.cpu.commit.op_class_0::InstPrefetch            0      0.00%    100.00% # Class of committed instruction
system.cpu.commit.op_class_0::total           4881169                       # Class of committed instruction
system.cpu.commit.bw_lim_events                297064                       # number cycles where commit BW limit reached
system.cpu.rob.rob_reads                     11024260                       # The number of ROB reads
system.cpu.rob.rob_writes                    19087758                       # The number of ROB writes
system.cpu.timesIdled                             516                       # Number of times that the entire CPU went into an idle state and unscheduled itself
system.cpu.idleCycles                           46894                       # Total number of cycles that the CPU has spent unscheduled due to idling
system.cpu.committedInsts                     2993062                       # Number of Instructions Simulated
system.cpu.committedOps                       4881169                       # Number of Ops (including micro ops) Simulated
system.cpu.cpi                               0.920667                       # CPI: Cycles Per Instruction
system.cpu.cpi_total                         0.920667                       # CPI: Total CPI of All Threads
system.cpu.ipc                               1.086170                       # IPC: Instructions Per Cycle
system.cpu.ipc_total                         1.086170                       # IPC: Total IPC of All Threads
system.cpu.int_regfile_reads                 10267341                       # number of integer regfile reads
system.cpu.int_regfile_writes                 6237768                       # number of integer regfile writes
system.cpu.fp_regfile_reads                     48553                       # number of floating regfile reads
system.cpu.fp_regfile_writes                    46161                       # number of floating regfile writes
system.cpu.cc_regfile_reads                   3562019                       # number of cc regfile reads
system.cpu.cc_regfile_writes                  3234641                       # number of cc regfile writes
system.cpu.misc_regfile_reads                 2655039                       # number of misc regfile reads
system.cpu.dcache.tags.pwrStateResidencyTicks::UNDEFINED   1837992537                       # Cumulative time (in ticks) in various power states
system.cpu.dcache.tags.tagsinuse           927.330413                       # Cycle average of tags in use
system.cpu.dcache.tags.total_refs              836067                       # Total number of references to valid blocks.
system.cpu.dcache.tags.sampled_refs              3156                       # Sample count of references to valid blocks.
system.cpu.dcache.tags.avg_refs            264.913498                       # Average number of references to valid blocks.
system.cpu.dcache.tags.warmup_cycle            186093                       # Cycle when the warmup percentage was hit.
system.cpu.dcache.tags.occ_blocks::.cpu.data   927.330413                       # Average occupied blocks per requestor
system.cpu.dcache.tags.occ_percent::.cpu.data     0.905596                       # Average percentage of cache occupancy
system.cpu.dcache.tags.occ_percent::total     0.905596                       # Average percentage of cache occupancy
system.cpu.dcache.tags.occ_task_id_blocks::1024          975                       # Occupied blocks per task id
system.cpu.dcache.tags.age_task_id_blocks_1024::0           70                       # Occupied blocks per task id
system.cpu.dcache.tags.age_task_id_blocks_1024::1            7                       # Occupied blocks per task id
system.cpu.dcache.tags.age_task_id_blocks_1024::2          459                       # Occupied blocks per task id
system.cpu.dcache.tags.age_task_id_blocks_1024::3          439                       # Occupied blocks per task id
system.cpu.dcache.tags.occ_task_id_percent::1024     0.952148                       # Percentage of cache occupancy per task id
system.cpu.dcache.tags.tag_accesses           1686158                       # Number of tag accesses
system.cpu.dcache.tags.data_accesses          1686158                       # Number of data accesses
system.cpu.dcache.pwrStateResidencyTicks::UNDEFINED   1837992537                       # Cumulative time (in ticks) in various power states
system.cpu.dcache.ReadReq_hits::.cpu.data       525633                       # number of ReadReq hits
system.cpu.dcache.ReadReq_hits::total          525633                       # number of ReadReq hits
system.cpu.dcache.WriteReq_hits::.cpu.data       307278                       # number of WriteReq hits
system.cpu.dcache.WriteReq_hits::total         307278                       # number of WriteReq hits
system.cpu.dcache.demand_hits::.cpu.data       832911                       # number of demand (read+write) hits
system.cpu.dcache.demand_hits::total           832911                       # number of demand (read+write) hits
system.cpu.dcache.overall_hits::.cpu.data       832911                       # number of overall hits
system.cpu.dcache.overall_hits::total          832911                       # number of overall hits
system.cpu.dcache.ReadReq_misses::.cpu.data         7330                       # number of ReadReq misses
system.cpu.dcache.ReadReq_misses::total          7330                       # number of ReadReq misses
system.cpu.dcache.WriteReq_misses::.cpu.data         1260                       # number of WriteReq misses
system.cpu.dcache.WriteReq_misses::total         1260                       # number of WriteReq misses
system.cpu.dcache.demand_misses::.cpu.data         8590                       # number of demand (read+write) misses
system.cpu.dcache.demand_misses::total           8590                       # number of demand (read+write) misses
system.cpu.dcache.overall_misses::.cpu.data         8590                       # number of overall misses
system.cpu.dcache.overall_misses::total          8590                       # number of overall misses
system.cpu.dcache.ReadReq_miss_latency::.cpu.data    492842965                       # number of ReadReq miss cycles
system.cpu.dcache.ReadReq_miss_latency::total    492842965                       # number of ReadReq miss cycles
system.cpu.dcache.WriteReq_miss_latency::.cpu.data     96026656                       # number of WriteReq miss cycles
system.cpu.dcache.WriteReq_miss_latency::total     96026656                       # number of WriteReq miss cycles
system.cpu.dcache.demand_miss_latency::.cpu.data    588869621                       # number of demand (read+write) miss cycles
system.cpu.dcache.demand_miss_latency::total    588869621                       # number of demand (read+write) miss cycles
system.cpu.dcache.overall_miss_latency::.cpu.data    588869621                       # number of overall miss cycles
system.cpu.dcache.overall_miss_latency::total    588869621                       # number of overall miss cycles
system.cpu.dcache.ReadReq_accesses::.cpu.data       532963                       # number of ReadReq accesses(hits+misses)
system.cpu.dcache.ReadReq_accesses::total       532963                       # number of ReadReq accesses(hits+misses)
[...]
system.l2.WritebackClean_accesses::total          107                       # number of WritebackClean accesses(hits+misses)
system.l2.ReadExReq_accesses::.cpu.data          1252                       # number of ReadExReq accesses(hits+misses)
system.l2.ReadExReq_accesses::total              1252                       # number of ReadExReq accesses(hits+misses)
system.l2.ReadCleanReq_accesses::.cpu.inst          843                       # number of ReadCleanReq accesses(hits+misses)
system.l2.ReadCleanReq_accesses::total            843                       # number of ReadCleanReq accesses(hits+misses)
system.l2.ReadSharedReq_accesses::.cpu.data         1904                       # number of ReadSharedReq accesses(hits+misses)
system.l2.ReadSharedReq_accesses::total          1904                       # number of ReadSharedReq accesses(hits+misses)
system.l2.demand_accesses::.cpu.inst              843                       # number of demand (read+write) accesses
system.l2.demand_accesses::.cpu.data             3156                       # number of demand (read+write) accesses
system.l2.demand_accesses::total                 3999                       # number of demand (read+write) accesses
system.l2.overall_accesses::.cpu.inst             843                       # number of overall (read+write) accesses
system.l2.overall_accesses::.cpu.data            3156                       # number of overall (read+write) accesses
system.l2.overall_accesses::total                3999                       # number of overall (read+write) accesses
system.l2.ReadExReq_miss_rate::.cpu.data     0.739617                       # miss rate for ReadExReq accesses
system.l2.ReadExReq_miss_rate::total         0.739617                       # miss rate for ReadExReq accesses
system.l2.ReadCleanReq_miss_rate::.cpu.inst     0.985765                       # miss rate for ReadCleanReq accesses
system.l2.ReadCleanReq_miss_rate::total      0.985765                       # miss rate for ReadCleanReq accesses
system.l2.ReadSharedReq_miss_rate::.cpu.data     0.829832                       # miss rate for ReadSharedReq accesses
system.l2.ReadSharedReq_miss_rate::total     0.829832                       # miss rate for ReadSharedReq accesses
system.l2.demand_miss_rate::.cpu.inst        0.985765                       # miss rate for demand accesses
system.l2.demand_miss_rate::.cpu.data        0.794043                       # miss rate for demand accesses
system.l2.demand_miss_rate::total            0.834459                       # miss rate for demand accesses
system.l2.overall_miss_rate::.cpu.inst       0.985765                       # miss rate for overall accesses
system.l2.overall_miss_rate::.cpu.data       0.794043                       # miss rate for overall accesses
system.l2.overall_miss_rate::total           0.834459                       # miss rate for overall accesses
system.l2.ReadExReq_avg_miss_latency::.cpu.data 93758.879050                       # average ReadExReq miss latency
system.l2.ReadExReq_avg_miss_latency::total 93758.879050                       # average ReadExReq miss latency
system.l2.ReadCleanReq_avg_miss_latency::.cpu.inst 86696.354994                       # average ReadCleanReq miss latency
system.l2.ReadCleanReq_avg_miss_latency::total 86696.354994                       # average ReadCleanReq miss latency
system.l2.ReadSharedReq_avg_miss_latency::.cpu.data 88656.964557                       # average ReadSharedReq miss latency
system.l2.ReadSharedReq_avg_miss_latency::total 88656.964557                       # average ReadSharedReq miss latency
system.l2.demand_avg_miss_latency::.cpu.inst 86696.354994                       # average overall miss latency
system.l2.demand_avg_miss_latency::.cpu.data 90542.189146                       # average overall miss latency
system.l2.demand_avg_miss_latency::total 89584.476176                       # average overall miss latency
system.l2.overall_avg_miss_latency::.cpu.inst 86696.354994                       # average overall miss latency
system.l2.overall_avg_miss_latency::.cpu.data 90542.189146                       # average overall miss latency
system.l2.overall_avg_miss_latency::total 89584.476176                       # average overall miss latency
system.l2.blocked_cycles::no_mshrs                  0                       # number of cycles access was blocked
system.l2.blocked_cycles::no_targets                0                       # number of cycles access was blocked
system.l2.blocked::no_mshrs                         0                       # number of cycles access was blocked
system.l2.blocked::no_targets                       0                       # number of cycles access was blocked
system.l2.avg_blocked_cycles::no_mshrs            nan                       # average number of cycles each access was blocked
system.l2.avg_blocked_cycles::no_targets          nan                       # average number of cycles each access was blocked
system.l2.ReadExReq_mshr_misses::.cpu.data          926                       # number of ReadExReq MSHR misses
system.l2.ReadExReq_mshr_misses::total            926                       # number of ReadExReq MSHR misses
system.l2.ReadCleanReq_mshr_misses::.cpu.inst          831                       # number of ReadCleanReq MSHR misses
system.l2.ReadCleanReq_mshr_misses::total          831                       # number of ReadCleanReq MSHR misses
system.l2.ReadSharedReq_mshr_misses::.cpu.data         1580                       # number of ReadSharedReq MSHR misses
system.l2.ReadSharedReq_mshr_misses::total         1580                       # number of ReadSharedReq MSHR misses
system.l2.demand_mshr_misses::.cpu.inst           831                       # number of demand (read+write) MSHR misses
system.l2.demand_mshr_misses::.cpu.data          2506                       # number of demand (read+write) MSHR misses
system.l2.demand_mshr_misses::total              3337                       # number of demand (read+write) MSHR misses
system.l2.overall_mshr_misses::.cpu.inst          831                       # number of overall MSHR misses
system.l2.overall_mshr_misses::.cpu.data         2506                       # number of overall MSHR misses
system.l2.overall_mshr_misses::total             3337                       # number of overall MSHR misses
system.l2.ReadExReq_mshr_miss_latency::.cpu.data     74467882                       # number of ReadExReq MSHR miss cycles
system.l2.ReadExReq_mshr_miss_latency::total     74467882                       # number of ReadExReq MSHR miss cycles
system.l2.ReadCleanReq_mshr_miss_latency::.cpu.inst     60959131                       # number of ReadCleanReq MSHR miss cycles
system.l2.ReadCleanReq_mshr_miss_latency::total     60959131                       # number of ReadCleanReq MSHR miss cycles
system.l2.ReadSharedReq_mshr_miss_latency::.cpu.data    119000804                       # number of ReadSharedReq MSHR miss cycles
system.l2.ReadSharedReq_mshr_miss_latency::total    119000804                       # number of ReadSharedReq MSHR miss cycles
system.l2.demand_mshr_miss_latency::.cpu.inst     60959131                       # number of demand (read+write) MSHR miss cycles
system.l2.demand_mshr_miss_latency::.cpu.data    193468686                       # number of demand (read+write) MSHR miss cycles
system.l2.demand_mshr_miss_latency::total    254427817                       # number of demand (read+write) MSHR miss cycles
system.l2.overall_mshr_miss_latency::.cpu.inst     60959131                       # number of overall MSHR miss cycles
system.l2.overall_mshr_miss_latency::.cpu.data    193468686                       # number of overall MSHR miss cycles
system.l2.overall_mshr_miss_latency::total    254427817                       # number of overall MSHR miss cycles
system.l2.ReadExReq_mshr_miss_rate::.cpu.data     0.739617                       # mshr miss rate for ReadExReq accesses
system.l2.ReadExReq_mshr_miss_rate::total     0.739617                       # mshr miss rate for ReadExReq accesses
system.l2.ReadCleanReq_mshr_miss_rate::.cpu.inst     0.985765                       # mshr miss rate for ReadCleanReq accesses
system.l2.ReadCleanReq_mshr_miss_rate::total     0.985765                       # mshr miss rate for ReadCleanReq accesses
system.l2.ReadSharedReq_mshr_miss_rate::.cpu.data     0.829832                       # mshr miss rate for ReadSharedReq accesses
system.l2.ReadSharedReq_mshr_miss_rate::total     0.829832                       # mshr miss rate for ReadSharedReq accesses
system.l2.demand_mshr_miss_rate::.cpu.inst     0.985765                       # mshr miss rate for demand accesses
system.l2.demand_mshr_miss_rate::.cpu.data     0.794043                       # mshr miss rate for demand accesses
system.l2.demand_mshr_miss_rate::total       0.834459                       # mshr miss rate for demand accesses
system.l2.overall_mshr_miss_rate::.cpu.inst     0.985765                       # mshr miss rate for overall accesses
system.l2.overall_mshr_miss_rate::.cpu.data     0.794043                       # mshr miss rate for overall accesses
system.l2.overall_mshr_miss_rate::total      0.834459                       # mshr miss rate for overall accesses
system.l2.ReadExReq_avg_mshr_miss_latency::.cpu.data 80418.879050                       # average ReadExReq mshr miss latency
system.l2.ReadExReq_avg_mshr_miss_latency::total 80418.879050                       # average ReadExReq mshr miss latency
system.l2.ReadCleanReq_avg_mshr_miss_latency::.cpu.inst 73356.354994                       # average ReadCleanReq mshr miss latency
system.l2.ReadCleanReq_avg_mshr_miss_latency::total 73356.354994                       # average ReadCleanReq mshr miss latency
system.l2.ReadSharedReq_avg_mshr_miss_latency::.cpu.data 75316.964557                       # average ReadSharedReq mshr miss latency
system.l2.ReadSharedReq_avg_mshr_miss_latency::total 75316.964557                       # average ReadSharedReq mshr miss latency
system.l2.demand_avg_mshr_miss_latency::.cpu.inst 73356.354994                       # average overall mshr miss latency
system.l2.demand_avg_mshr_miss_latency::.cpu.data 77202.189146                       # average overall mshr miss latency
system.l2.demand_avg_mshr_miss_latency::total 76244.476176                       # average overall mshr miss latency
system.l2.overall_avg_mshr_miss_latency::.cpu.inst 73356.354994                       # average overall mshr miss latency
system.l2.overall_avg_mshr_miss_latency::.cpu.data 77202.189146                       # average overall mshr miss latency
system.l2.overall_avg_mshr_miss_latency::total 76244.476176                       # average overall mshr miss latency
system.l2.replacements                              0                       # number of replacements
system.membus.snoop_filter.tot_requests          3337                       # Total number of requests made to the snoop filter.
system.membus.snoop_filter.hit_single_requests            0                       # Number of requests hitting in the snoop filter with a single holder of the requested data.
system.membus.snoop_filter.hit_multi_requests            0                       # Number of requests hitting in the snoop filter with multiple (>1) holders of the requested data.
system.membus.snoop_filter.tot_snoops               0                       # Total number of snoops made to the snoop filter.
system.membus.snoop_filter.hit_single_snoops            0                       # Number of snoops hitting in the snoop filter with a single holder of the requested data.
system.membus.snoop_filter.hit_multi_snoops            0                       # Number of snoops hitting in the snoop filter with multiple (>1) holders of the requested data.
system.membus.pwrStateResidencyTicks::UNDEFINED   1837992537                       # Cumulative time (in ticks) in various power states
system.membus.trans_dist::ReadResp               2411                       # Transaction distribution
system.membus.trans_dist::ReadExReq               926                       # Transaction distribution
system.membus.trans_dist::ReadExResp              926                       # Transaction distribution
system.membus.trans_dist::ReadSharedReq          2411                       # Transaction distribution
system.membus.pkt_count_system.l2.mem_side::system.mem_ctrls.port         6674                       # Packet count per connected master and slave (bytes)
system.membus.pkt_count_system.l2.mem_side::total         6674                       # Packet count per connected master and slave (bytes)
system.membus.pkt_count::total                   6674                       # Packet count per connected master and slave (bytes)
system.membus.pkt_size_system.l2.mem_side::system.mem_ctrls.port       213568                       # Cumulative packet size per connected master and slave (bytes)
system.membus.pkt_size_system.l2.mem_side::total       213568                       # Cumulative packet size per connected master and slave (bytes)
system.membus.pkt_size::total                  213568                       # Cumulative packet size per connected master and slave (bytes)
system.membus.snoops                                0                       # Total snoops (count)
system.membus.snoopTraffic                          0                       # Total snoop traffic (bytes)
system.membus.snoop_fanout::samples              3337                       # Request fanout histogram
system.membus.snoop_fanout::mean                    0                       # Request fanout histogram
system.membus.snoop_fanout::stdev                   0                       # Request fanout histogram
system.membus.snoop_fanout::underflows              0      0.00%      0.00% # Request fanout histogram
system.membus.snoop_fanout::0                    3337    100.00%    100.00% # Request fanout histogram
system.membus.snoop_fanout::1                       0      0.00%    100.00% # Request fanout histogram
system.membus.snoop_fanout::overflows               0      0.00%    100.00% # Request fanout histogram
system.membus.snoop_fanout::min_value               0                       # Request fanout histogram
system.membus.snoop_fanout::max_value               0                       # Request fanout histogram
system.membus.snoop_fanout::total                3337                       # Request fanout histogram
system.membus.reqLayer2.occupancy             2225779                       # Layer occupancy (ticks)
system.membus.reqLayer2.utilization               0.1                       # Layer utilization (%)
system.membus.respLayer1.occupancy           12751708                       # Layer occupancy (ticks)
system.membus.respLayer1.utilization              0.7                       # Layer utilization (%)
system.tol2bus.snoop_filter.tot_requests         6288                       # Total number of requests made to the snoop filter.
system.tol2bus.snoop_filter.hit_single_requests         2289                       # Number of requests hitting in the snoop filter with a single holder of the requested data.
system.tol2bus.snoop_filter.hit_multi_requests            7                       # Number of requests hitting in the snoop filter with multiple (>1) holders of the requested data.
system.tol2bus.snoop_filter.tot_snoops              0                       # Total number of snoops made to the snoop filter.
system.tol2bus.snoop_filter.hit_single_snoops            0                       # Number of snoops hitting in the snoop filter with a single holder of the requested data.
system.tol2bus.snoop_filter.hit_multi_snoops            0                       # Number of snoops hitting in the snoop filter with multiple (>1) holders of the requested data.
system.tol2bus.pwrStateResidencyTicks::UNDEFINED   1837992537                       # Cumulative time (in ticks) in various power states
system.tol2bus.trans_dist::ReadResp              2747                       # Transaction distribution
system.tol2bus.trans_dist::WritebackDirty         1118                       # Transaction distribution
system.tol2bus.trans_dist::WritebackClean          108                       # Transaction distribution
system.tol2bus.trans_dist::CleanEvict            1063                       # Transaction distribution
system.tol2bus.trans_dist::ReadExReq             1252                       # Transaction distribution
system.tol2bus.trans_dist::ReadExResp            1252                       # Transaction distribution
system.tol2bus.trans_dist::ReadCleanReq           843                       # Transaction distribution
system.tol2bus.trans_dist::ReadSharedReq         1904                       # Transaction distribution
system.tol2bus.pkt_count_system.cpu.icache.mem_side::system.l2.cpu_side         1794                       # Packet count per connected master and slave (bytes)
system.tol2bus.pkt_count_system.cpu.dcache.mem_side::system.l2.cpu_side         8493                       # Packet count per connected master and slave (bytes)
system.tol2bus.pkt_count::total                 10287                       # Packet count per connected master and slave (bytes)
system.tol2bus.pkt_size_system.cpu.icache.mem_side::system.l2.cpu_side        60864                       # Cumulative packet size per connected master and slave (bytes)
system.tol2bus.pkt_size_system.cpu.dcache.mem_side::system.l2.cpu_side       273536                       # Cumulative packet size per connected master and slave (bytes)
system.tol2bus.pkt_size::total                 334400                       # Cumulative packet size per connected master and slave (bytes)
system.tol2bus.snoops                               0                       # Total snoops (count)
system.tol2bus.snoopTraffic                         0                       # Total snoop traffic (bytes)
system.tol2bus.snoop_fanout::samples             3999                       # Request fanout histogram
system.tol2bus.snoop_fanout::mean            0.001750                       # Request fanout histogram
system.tol2bus.snoop_fanout::stdev           0.041807                       # Request fanout histogram
system.tol2bus.snoop_fanout::underflows             0      0.00%      0.00% # Request fanout histogram
system.tol2bus.snoop_fanout::0                   3992     99.82%     99.82% # Request fanout histogram
system.tol2bus.snoop_fanout::1                      7      0.18%    100.00% # Request fanout histogram
system.tol2bus.snoop_fanout::2                      0      0.00%    100.00% # Request fanout histogram
system.tol2bus.snoop_fanout::3                      0      0.00%    100.00% # Request fanout histogram
system.tol2bus.snoop_fanout::4                      0      0.00%    100.00% # Request fanout histogram
system.tol2bus.snoop_fanout::overflows              0      0.00%    100.00% # Request fanout histogram
system.tol2bus.snoop_fanout::min_value              0                       # Request fanout histogram
system.tol2bus.snoop_fanout::max_value              1                       # Request fanout histogram
system.tol2bus.snoop_fanout::total               3999                       # Request fanout histogram
system.tol2bus.reqLayer0.occupancy            5829580                       # Layer occupancy (ticks)
system.tol2bus.reqLayer0.utilization              0.3                       # Layer utilization (%)
system.tol2bus.respLayer0.occupancy           1686843                       # Layer occupancy (ticks)
system.tol2bus.respLayer0.utilization             0.1                       # Layer utilization (%)
system.tol2bus.respLayer1.occupancy           6315156                       # Layer occupancy (ticks)
system.tol2bus.respLayer1.utilization             0.3                       # Layer utilization (%)

---------- End Simulation Statistics   ----------
