
---------- Begin Simulation Statistics ----------
sim_seconds                                  0.059622                       # Number of seconds simulated
sim_ticks                                 59621640000                       # Number of ticks simulated
final_tick                                59621640000                       # Number of ticks from beginning of simulation (restored from checkpoints and never reset)
sim_freq                                 1000000000000                       # Frequency of simulated ticks
host_inst_rate                                  52688                       # Simulator instruction rate (inst/s)
host_op_rate                                    86604                       # Simulator op (including micro ops) rate (op/s)
host_tick_rate                              253550194                       # Simulator tick rate (ticks/s)
host_mem_usage                                 664964                       # Number of bytes of host memory used
host_seconds                                   235.15                       # Real time elapsed on the host
sim_insts                                    12389449                       # Number of instructions simulated
sim_ops                                      20364677                       # Number of ops (including micro ops) simulated
system.clk_domain.voltage_domain.voltage            1                       # Voltage in Volts
system.clk_domain.clock                          1000                       # Clock period in ticks
system.mem_ctrl.pwrStateResidencyTicks::UNDEFINED  59621640000                       # Cumulative time (in ticks) in various power states
system.mem_ctrl.bytes_read::.cpu.inst           87104                       # Number of bytes read from this memory
system.mem_ctrl.bytes_read::.cpu.data        50193664                       # Number of bytes read from this memory
system.mem_ctrl.bytes_read::total            50280768                       # Number of bytes read from this memory
system.mem_ctrl.bytes_inst_read::.cpu.inst        87104                       # Number of instructions bytes read from this memory
system.mem_ctrl.bytes_inst_read::total          87104                       # Number of instructions bytes read from this memory
system.mem_ctrl.bytes_written::.writebacks     49013952                       # Number of bytes written to this memory
system.mem_ctrl.bytes_written::total         49013952                       # Number of bytes written to this memory
system.mem_ctrl.num_reads::.cpu.inst             1361                       # Number of read requests responded to by this memory
system.mem_ctrl.num_reads::.cpu.data           784276                       # Number of read requests responded to by this memory
system.mem_ctrl.num_reads::total               785637                       # Number of read requests responded to by this memory
system.mem_ctrl.num_writes::.writebacks        765843                       # Number of write requests responded to by this memory
system.mem_ctrl.num_writes::total              765843                       # Number of write requests responded to by this memory
system.mem_ctrl.bw_read::.cpu.inst            1460946                       # Total read bandwidth from this memory (bytes/s)
system.mem_ctrl.bw_read::.cpu.data          841869898                       # Total read bandwidth from this memory (bytes/s)
system.mem_ctrl.bw_read::total              843330844                       # Total read bandwidth from this memory (bytes/s)
system.mem_ctrl.bw_inst_read::.cpu.inst       1460946                       # Instruction read bandwidth from this memory (bytes/s)
system.mem_ctrl.bw_inst_read::total           1460946                       # Instruction read bandwidth from this memory (bytes/s)
system.mem_ctrl.bw_write::.writebacks       822083257                       # Write bandwidth from this memory (bytes/s)
system.mem_ctrl.bw_write::total             822083257                       # Write bandwidth from this memory (bytes/s)
system.mem_ctrl.bw_total::.writebacks       822083257                       # Total bandwidth to/from this memory (bytes/s)
system.mem_ctrl.bw_total::.cpu.inst           1460946                       # Total bandwidth to/from this memory (bytes/s)
system.mem_ctrl.bw_total::.cpu.data         841869898                       # Total bandwidth to/from this memory (bytes/s)
system.mem_ctrl.bw_total::total            1665414101                       # Total bandwidth to/from this memory (bytes/s)
system.mem_ctrl.avgPriority_.writebacks::samples    765828.00                       # Average QoS priority value for accepted requests
system.mem_ctrl.avgPriority_.cpu.inst::samples      1361.00                       # Average QoS priority value for accepted requests
system.mem_ctrl.avgPriority_.cpu.data::samples    784188.00                       # Average QoS priority value for accepted requests
system.mem_ctrl.priorityMinLatency       0.000000018750                       # per QoS priority minimum request to response latency (s)
system.mem_ctrl.priorityMaxLatency       0.002639998500                       # per QoS priority maximum request to response latency (s)
system.mem_ctrl.numReadWriteTurnArounds         47816                       # Number of turnarounds from READ to WRITE
system.mem_ctrl.numWriteReadTurnArounds         47816                       # Number of turnarounds from WRITE to READ
system.mem_ctrl.numStayReadState              2300405                       # Number of times bus staying in READ state
system.mem_ctrl.numStayWriteState              719947                       # Number of times bus staying in WRITE state
system.mem_ctrl.readReqs                       785637                       # Number of read requests accepted
system.mem_ctrl.writeReqs                      765843                       # Number of write requests accepted
system.mem_ctrl.readBursts                     785637                       # Number of DRAM read bursts, including those serviced by the write queue
system.mem_ctrl.writeBursts                    765843                       # Number of DRAM write bursts, including those merged in the write queue
system.mem_ctrl.bytesReadDRAM                50275136                       # Total number of bytes read from DRAM
system.mem_ctrl.bytesReadWrQ                     5632                       # Total number of bytes read from write queue
system.mem_ctrl.bytesWritten                 49011392                       # Total number of bytes written to DRAM
system.mem_ctrl.bytesReadSys                 50280768                       # Total read bytes from the system interface side
system.mem_ctrl.bytesWrittenSys              49013952                       # Total written bytes from the system interface side
system.mem_ctrl.servicedByWrQ                      88                       # Number of DRAM read bursts serviced by the write queue
system.mem_ctrl.mergedWrBursts                     15                       # Number of DRAM write bursts merged with an existing one
system.mem_ctrl.neitherReadNorWriteReqs             0                       # Number of requests that are neither read nor write
system.mem_ctrl.perBankRdBursts::0              45677                       # Per bank write bursts
system.mem_ctrl.perBankRdBursts::1              45230                       # Per bank write bursts
system.mem_ctrl.perBankRdBursts::2              45187                       # Per bank write bursts
system.mem_ctrl.perBankRdBursts::3              44956                       # Per bank write bursts
system.mem_ctrl.perBankRdBursts::4              44988                       # Per bank write bursts
system.mem_ctrl.perBankRdBursts::5              45131                       # Per bank write bursts
system.mem_ctrl.perBankRdBursts::6              51490                       # Per bank write bursts
system.mem_ctrl.perBankRdBursts::7              51429                       # Per bank write bursts
system.mem_ctrl.perBankRdBursts::8              51423                       # Per bank write bursts
system.mem_ctrl.perBankRdBursts::9              51418                       # Per bank write bursts
system.mem_ctrl.perBankRdBursts::10             51476                       # Per bank write bursts
system.mem_ctrl.perBankRdBursts::11             51516                       # Per bank write bursts
system.mem_ctrl.perBankRdBursts::12             51394                       # Per bank write bursts
system.mem_ctrl.perBankRdBursts::13             51419                       # Per bank write bursts
system.mem_ctrl.perBankRdBursts::14             51364                       # Per bank write bursts
system.mem_ctrl.perBankRdBursts::15             51451                       # Per bank write bursts
system.mem_ctrl.perBankWrBursts::0              44473                       # Per bank write bursts
system.mem_ctrl.perBankWrBursts::1              43987                       # Per bank write bursts
system.mem_ctrl.perBankWrBursts::2              44009                       # Per bank write bursts
system.mem_ctrl.perBankWrBursts::3              43910                       # Per bank write bursts
system.mem_ctrl.perBankWrBursts::4              43935                       # Per bank write bursts
system.mem_ctrl.perBankWrBursts::5              43992                       # Per bank write bursts
system.mem_ctrl.perBankWrBursts::6              49994                       # Per bank write bursts
system.mem_ctrl.perBankWrBursts::7              50153                       # Per bank write bursts
system.mem_ctrl.perBankWrBursts::8              50161                       # Per bank write bursts
system.mem_ctrl.perBankWrBursts::9              50169                       # Per bank write bursts
system.mem_ctrl.perBankWrBursts::10             50229                       # Per bank write bursts
system.mem_ctrl.perBankWrBursts::11             50150                       # Per bank write bursts
system.mem_ctrl.perBankWrBursts::12             50145                       # Per bank write bursts
system.mem_ctrl.perBankWrBursts::13             50187                       # Per bank write bursts
system.mem_ctrl.perBankWrBursts::14             50150                       # Per bank write bursts
system.mem_ctrl.perBankWrBursts::15             50159                       # Per bank write bursts
system.mem_ctrl.numRdRetry                          0                       # Number of times read queue was full causing retry
system.mem_ctrl.numWrRetry                          0                       # Number of times write queue was full causing retry
system.mem_ctrl.totGap                    59621570000                       # Total gap between requests
system.mem_ctrl.readPktSize::0                      0                       # Read request sizes (log2)
system.mem_ctrl.readPktSize::1                      0                       # Read request sizes (log2)
system.mem_ctrl.readPktSize::2                      0                       # Read request sizes (log2)
system.mem_ctrl.readPktSize::3                      0                       # Read request sizes (log2)
system.mem_ctrl.readPktSize::4                      0                       # Read request sizes (log2)
system.mem_ctrl.readPktSize::5                      0                       # Read request sizes (log2)
system.mem_ctrl.readPktSize::6                 785637                       # Read request sizes (log2)
system.mem_ctrl.writePktSize::0                     0                       # Write request sizes (log2)
system.mem_ctrl.writePktSize::1                     0                       # Write request sizes (log2)
system.mem_ctrl.writePktSize::2                     0                       # Write request sizes (log2)
system.mem_ctrl.writePktSize::3                     0                       # Write request sizes (log2)
system.mem_ctrl.writePktSize::4                     0                       # Write request sizes (log2)
system.mem_ctrl.writePktSize::5                     0                       # Write request sizes (log2)
system.mem_ctrl.writePktSize::6                765843                       # Write request sizes (log2)
system.mem_ctrl.rdQLenPdf::0                   783462                       # What read queue length does an incoming req see
system.mem_ctrl.rdQLenPdf::1                     1504                       # What read queue length does an incoming req see
system.mem_ctrl.rdQLenPdf::2                      459                       # What read queue length does an incoming req see
system.mem_ctrl.rdQLenPdf::3                      103                       # What read queue length does an incoming req see
system.mem_ctrl.rdQLenPdf::4                       18                       # What read queue length does an incoming req see
system.mem_ctrl.rdQLenPdf::5                        3                       # What read queue length does an incoming req see
system.mem_ctrl.rdQLenPdf::6                        0                       # What read queue length does an incoming req see
system.mem_ctrl.rdQLenPdf::7                        0                       # What read queue length does an incoming req see
system.mem_ctrl.rdQLenPdf::8                        0                       # What read queue length does an incoming req see
system.mem_ctrl.rdQLenPdf::9                        0                       # What read queue length does an incoming req see
system.mem_ctrl.rdQLenPdf::10                       0                       # What read queue length does an incoming req see
system.mem_ctrl.rdQLenPdf::11                       0                       # What read queue length does an incoming req see
system.mem_ctrl.rdQLenPdf::12                       0                       # What read queue length does an incoming req see
system.mem_ctrl.rdQLenPdf::13                       0                       # What read queue length does an incoming req see
system.mem_ctrl.rdQLenPdf::14                       0                       # What read queue length does an incoming req see
system.mem_ctrl.rdQLenPdf::15                       0                       # What read queue length does an incoming req see
system.mem_ctrl.rdQLenPdf::16                       0                       # What read queue length does an incoming req see
system.mem_ctrl.rdQLenPdf::17                       0                       # What read queue length does an incoming req see
system.mem_ctrl.rdQLenPdf::18                       0                       # What read queue length does an incoming req see
system.mem_ctrl.rdQLenPdf::19                       0                       # What read queue length does an incoming req see
system.mem_ctrl.rdQLenPdf::20                       0                       # What read queue length does an incoming req see
system.mem_ctrl.rdQLenPdf::21                       0                       # What read queue length does an incoming req see
system.mem_ctrl.rdQLenPdf::22                       0                       # What read queue length does an incoming req see
system.mem_ctrl.rdQLenPdf::23                       0                       # What read queue length does an incoming req see
system.mem_ctrl.rdQLenPdf::24                       0                       # What read queue length does an incoming req see
system.mem_ctrl.rdQLenPdf::25                       0                       # What read queue length does an incoming req see
system.mem_ctrl.rdQLenPdf::26                       0                       # What read queue length does an incoming req see
system.mem_ctrl.rdQLenPdf::27                       0                       # What read queue length does an incoming req see
system.mem_ctrl.rdQLenPdf::28                       0                       # What read queue length does an incoming req see
system.mem_ctrl.rdQLenPdf::29                       0                       # What read queue length does an incoming req see
system.mem_ctrl.rdQLenPdf::30                       0                       # What read queue length does an incoming req see
system.mem_ctrl.rdQLenPdf::31                       0                       # What read queue length does an incoming req see
system.mem_ctrl.wrQLenPdf::0                        1                       # What write queue length does an incoming req see
system.mem_ctrl.wrQLenPdf::1                        1                       # What write queue length does an incoming req see
system.mem_ctrl.wrQLenPdf::2                        1                       # What write queue length does an incoming req see
system.mem_ctrl.wrQLenPdf::3                        1                       # What write queue length does an incoming req see
system.mem_ctrl.wrQLenPdf::4                        1                       # What write queue length does an incoming req see
system.mem_ctrl.wrQLenPdf::5                        1                       # What write queue length does an incoming req see
system.mem_ctrl.wrQLenPdf::6                        1                       # What write queue length does an incoming req see
system.mem_ctrl.wrQLenPdf::7                        1                       # What write queue length does an incoming req see
system.mem_ctrl.wrQLenPdf::8                        1                       # What write queue length does an incoming req see
system.mem_ctrl.wrQLenPdf::9                        1                       # What write queue length does an incoming req see
system.mem_ctrl.wrQLenPdf::10                       1                       # What write queue length does an incoming req see
system.mem_ctrl.wrQLenPdf::11                       1                       # What write queue length does an incoming req see
system.mem_ctrl.wrQLenPdf::12                       1                       # What write queue length does an incoming req see
system.mem_ctrl.wrQLenPdf::13                       1                       # What write queue length does an incoming req see
system.mem_ctrl.wrQLenPdf::14                       1                       # What write queue length does an incoming req see
system.mem_ctrl.wrQLenPdf::15                     174                       # What write queue length does an incoming req see
system.mem_ctrl.wrQLenPdf::16                     567                       # What write queue length does an incoming req see
system.mem_ctrl.wrQLenPdf::17                   47766                       # What write queue length does an incoming req see
system.mem_ctrl.wrQLenPdf::18                   47813                       # What write queue length does an incoming req see
system.mem_ctrl.wrQLenPdf::19                   47819                       # What write queue length does an incoming req see
system.mem_ctrl.wrQLenPdf::20                   47817                       # What write queue length does an incoming req see
system.mem_ctrl.wrQLenPdf::21                   47816                       # What write queue length does an incoming req see
system.mem_ctrl.wrQLenPdf::22                   47818                       # What write queue length does an incoming req see
system.mem_ctrl.wrQLenPdf::23                   47820                       # What write queue length does an incoming req see
system.mem_ctrl.wrQLenPdf::24                   47819                       # What write queue length does an incoming req see
system.mem_ctrl.wrQLenPdf::25                   47818                       # What write queue length does an incoming req see
system.mem_ctrl.wrQLenPdf::26                   47818                       # What write queue length does an incoming req see
system.mem_ctrl.wrQLenPdf::27                   47821                       # What write queue length does an incoming req see
system.mem_ctrl.wrQLenPdf::28                   47819                       # What write queue length does an incoming req see
system.mem_ctrl.wrQLenPdf::29                   47818                       # What write queue length does an incoming req see
system.mem_ctrl.wrQLenPdf::30                   47816                       # What write queue length does an incoming req see
system.mem_ctrl.wrQLenPdf::31                   47817                       # What write queue length does an incoming req see
system.mem_ctrl.wrQLenPdf::32                   47817                       # What write queue length does an incoming req see
system.mem_ctrl.wrQLenPdf::33                      10                       # What write queue length does an incoming req see
system.mem_ctrl.wrQLenPdf::34                       8                       # What write queue length does an incoming req see
system.mem_ctrl.wrQLenPdf::35                       9                       # What write queue length does an incoming req see
system.mem_ctrl.wrQLenPdf::36                       7                       # What write queue length does an incoming req see
system.mem_ctrl.wrQLenPdf::37                       3                       # What write queue length does an incoming req see
system.mem_ctrl.wrQLenPdf::38                       2                       # What write queue length does an incoming req see
system.mem_ctrl.wrQLenPdf::39                       1                       # What write queue length does an incoming req see
system.mem_ctrl.wrQLenPdf::40                       0                       # What write queue length does an incoming req see
system.mem_ctrl.wrQLenPdf::41                       0                       # What write queue length does an incoming req see
system.mem_ctrl.wrQLenPdf::42                       0                       # What write queue length does an incoming req see
system.mem_ctrl.wrQLenPdf::43                       0                       # What write queue length does an incoming req see
system.mem_ctrl.wrQLenPdf::44                       0                       # What write queue length does an incoming req see
system.mem_ctrl.wrQLenPdf::45                       0                       # What write queue length does an incoming req see
system.mem_ctrl.wrQLenPdf::46                       0                       # What write queue length does an incoming req see
system.mem_ctrl.wrQLenPdf::47                       0                       # What write queue length does an incoming req see
system.mem_ctrl.wrQLenPdf::48                       0                       # What write queue length does an incoming req see
system.mem_ctrl.wrQLenPdf::49                       0                       # What write queue length does an incoming req see
system.mem_ctrl.wrQLenPdf::50                       0                       # What write queue length does an incoming req see
system.mem_ctrl.wrQLenPdf::51                       0                       # What write queue length does an incoming req see
system.mem_ctrl.wrQLenPdf::52                       0                       # What write queue length does an incoming req see
system.mem_ctrl.wrQLenPdf::53                       0                       # What write queue length does an incoming req see
system.mem_ctrl.wrQLenPdf::54                       0                       # What write queue length does an incoming req see
system.mem_ctrl.wrQLenPdf::55                       0                       # What write queue length does an incoming req see
system.mem_ctrl.wrQLenPdf::56                       0                       # What write queue length does an incoming req see
system.mem_ctrl.wrQLenPdf::57                       0                       # What write queue length does an incoming req see
system.mem_ctrl.wrQLenPdf::58                       0                       # What write queue length does an incoming req see
system.mem_ctrl.wrQLenPdf::59                       0                       # What write queue length does an incoming req see
system.mem_ctrl.wrQLenPdf::60                       0                       # What write queue length does an incoming req see
system.mem_ctrl.wrQLenPdf::61                       0                       # What write queue length does an incoming req see
system.mem_ctrl.wrQLenPdf::62                       0                       # What write queue length does an incoming req see
system.mem_ctrl.wrQLenPdf::63                       0                       # What write queue length does an incoming req see
system.mem_ctrl.bytesPerActivate::samples       143381                       # Bytes accessed per row activation
system.mem_ctrl.bytesPerActivate::mean     692.449460                       # Bytes accessed per row activation
system.mem_ctrl.bytesPerActivate::gmean    530.535610                       # Bytes accessed per row activation
system.mem_ctrl.bytesPerActivate::stdev    365.874809                       # Bytes accessed per row activation
system.mem_ctrl.bytesPerActivate::0-127         10946      7.63%      7.63% # Bytes accessed per row activation
system.mem_ctrl.bytesPerActivate::128-255        14963     10.44%     18.07% # Bytes accessed per row activation
system.mem_ctrl.bytesPerActivate::256-383        11275      7.86%     25.93% # Bytes accessed per row activation
system.mem_ctrl.bytesPerActivate::384-511         9812      6.84%     32.78% # Bytes accessed per row activation
system.mem_ctrl.bytesPerActivate::512-639         9810      6.84%     39.62% # Bytes accessed per row activation
system.mem_ctrl.bytesPerActivate::640-767         8219      5.73%     45.35% # Bytes accessed per row activation
system.mem_ctrl.bytesPerActivate::768-895         6569      4.58%     49.93% # Bytes accessed per row activation
system.mem_ctrl.bytesPerActivate::896-1023         6109      4.26%     54.19% # Bytes accessed per row activation
system.mem_ctrl.bytesPerActivate::1024-1151        65678     45.81%    100.00% # Bytes accessed per row activation
system.mem_ctrl.bytesPerActivate::total        143381                       # Bytes accessed per row activation
system.mem_ctrl.rdPerTurnAround::samples        47816                       # Reads before turning the bus around for writes
system.mem_ctrl.rdPerTurnAround::mean       16.423833                       # Reads before turning the bus around for writes
system.mem_ctrl.rdPerTurnAround::gmean      16.035187                       # Reads before turning the bus around for writes
system.mem_ctrl.rdPerTurnAround::stdev      71.533384                       # Reads before turning the bus around for writes
system.mem_ctrl.rdPerTurnAround::0-511          47813     99.99%     99.99% # Reads before turning the bus around for writes
system.mem_ctrl.rdPerTurnAround::512-1023            1      0.00%    100.00% # Reads before turning the bus around for writes
system.mem_ctrl.rdPerTurnAround::1024-1535            1      0.00%    100.00% # Reads before turning the bus around for writes
system.mem_ctrl.rdPerTurnAround::15360-15871            1      0.00%    100.00% # Reads before turning the bus around for writes
system.mem_ctrl.rdPerTurnAround::total          47816                       # Reads before turning the bus around for writes
system.mem_ctrl.wrPerTurnAround::samples        47816                       # Writes before turning the bus around for reads
system.mem_ctrl.wrPerTurnAround::mean       16.015622                       # Writes before turning the bus around for reads
system.mem_ctrl.wrPerTurnAround::gmean      16.014954                       # Writes before turning the bus around for reads
system.mem_ctrl.wrPerTurnAround::stdev       0.151076                       # Writes before turning the bus around for reads
system.mem_ctrl.wrPerTurnAround::16             47246     98.81%     98.81% # Writes before turning the bus around for reads
system.mem_ctrl.wrPerTurnAround::17               394      0.82%     99.63% # Writes before turning the bus around for reads
system.mem_ctrl.wrPerTurnAround::18               175      0.37%    100.00% # Writes before turning the bus around for reads
system.mem_ctrl.wrPerTurnAround::19                 1      0.00%    100.00% # Writes before turning the bus around for reads
system.mem_ctrl.wrPerTurnAround::total          47816                       # Writes before turning the bus around for reads
system.mem_ctrl.masterReadBytes::.cpu.inst        87104                       # Per-master bytes read from memory
system.mem_ctrl.masterReadBytes::.cpu.data     50188032                       # Per-master bytes read from memory
system.mem_ctrl.masterWriteBytes::.writebacks     49011392                       # Per-master bytes write to memory
system.mem_ctrl.masterReadRate::.cpu.inst 1460946.059182538418                       # Per-master bytes read from memory rate (Bytes/sec)
system.mem_ctrl.masterReadRate::.cpu.data 841775435.898777723312                       # Per-master bytes read from memory rate (Bytes/sec)
system.mem_ctrl.masterWriteRate::.writebacks 822040319.588659524918                       # Per-master bytes write to memory rate (Bytes/sec)
system.mem_ctrl.masterReadAccesses::.cpu.inst         1361                       # Per-master read serviced memory accesses
system.mem_ctrl.masterReadAccesses::.cpu.data       784276                       # Per-master read serviced memory accesses
system.mem_ctrl.masterWriteAccesses::.writebacks       765843                       # Per-master write serviced memory accesses
system.mem_ctrl.masterReadTotalLat::.cpu.inst     44735000                       # Per-master read total memory access latency
system.mem_ctrl.masterReadTotalLat::.cpu.data  26984963000                       # Per-master read total memory access latency
system.mem_ctrl.masterWriteTotalLat::.writebacks 1467684294500                       # Per-master write total memory access latency
system.mem_ctrl.masterReadAvgLat::.cpu.inst     32869.21                       # Per-master read average memory access latency
system.mem_ctrl.masterReadAvgLat::.cpu.data     34407.48                       # Per-master read average memory access latency
system.mem_ctrl.masterWriteAvgLat::.writebacks   1916429.73                       # Per-master write average memory access latency
system.mem_ctrl.totQLat                   12300654250                       # Total ticks spent queuing
system.mem_ctrl.totMemAccLat              27029698000                       # Total ticks spent from burst creation until serviced by the DRAM
system.mem_ctrl.totBusLat                  3927745000                       # Total ticks spent in databus transfers
system.mem_ctrl.avgQLat                      15658.67                       # Average queueing delay per DRAM burst
system.mem_ctrl.avgBusLat                     5000.00                       # Average bus latency per DRAM burst
system.mem_ctrl.avgMemAccLat                 34408.67                       # Average memory access latency per DRAM burst
system.mem_ctrl.avgRdBW                        843.24                       # Average DRAM read bandwidth in MiByte/s
system.mem_ctrl.avgWrBW                        822.04                       # Average achieved write bandwidth in MiByte/s
system.mem_ctrl.avgRdBWSys                     843.33                       # Average system read bandwidth in MiByte/s
system.mem_ctrl.avgWrBWSys                     822.08                       # Average system write bandwidth in MiByte/s
system.mem_ctrl.peakBW                       12800.00                       # Theoretical peak bandwidth in MiByte/s
system.mem_ctrl.busUtil                         13.01                       # Data bus utilization in percentage
system.mem_ctrl.busUtilRead                      6.59                       # Data bus utilization in percentage for reads
system.mem_ctrl.busUtilWrite                     6.42                       # Data bus utilization in percentage for writes
system.mem_ctrl.avgRdQLen                        1.00                       # Average read queue length when enqueuing
system.mem_ctrl.avgWrQLen                       26.23                       # Average write queue length when enqueuing
system.mem_ctrl.readRowHits                    721876                       # Number of row buffer hits during reads
system.mem_ctrl.writeRowHits                   686083                       # Number of row buffer hits during writes
system.mem_ctrl.readRowHitRate                  91.89                       # Row buffer hit rate for reads
system.mem_ctrl.writeRowHitRate                 89.59                       # Row buffer hit rate for writes
system.mem_ctrl.avgGap                       38428.84                       # Average gap between requests
system.mem_ctrl.pageHitRate                     90.76                       # Row buffer hit rate, read and write combined
system.mem_ctrl_0.actEnergy                 485669940                       # Energy for activate commands per rank (pJ)
system.mem_ctrl_0.preEnergy                 258109335                       # Energy for precharge commands per rank (pJ)
system.mem_ctrl_0.readEnergy               2670988320                       # Energy for read commands per rank (pJ)
system.mem_ctrl_0.writeEnergy              1902444660                       # Energy for write commands per rank (pJ)
system.mem_ctrl_0.refreshEnergy          3950905920.000000                       # Energy for refresh commands per rank (pJ)
system.mem_ctrl_0.actBackEnergy           12555673860                       # Energy for active background per rank (pJ)
system.mem_ctrl_0.preBackEnergy             197340000                       # Energy for precharge background per rank (pJ)
system.mem_ctrl_0.actPowerDownEnergy       7441450320                       # Energy for active power-down per rank (pJ)
system.mem_ctrl_0.prePowerDownEnergy       2221477920                       # Energy for precharge power-down per rank (pJ)
system.mem_ctrl_0.selfRefreshEnergy        2481929160                       # Energy for self refresh per rank (pJ)
system.mem_ctrl_0.totalEnergy             34168899975                       # Total energy per rank (pJ)
system.mem_ctrl_0.averagePower             573.095607                       # Core power per rank (mW)
system.mem_ctrl_0.totalIdleTime           31566736500                       # Total Idle time Per DRAM Rank
system.mem_ctrl_0.memoryStateTime::IDLE     244139000                       # Time in different power states
system.mem_ctrl_0.memoryStateTime::REF     1671280000                       # Time in different power states
system.mem_ctrl_0.memoryStateTime::SREF    9462832500                       # Time in different power states
system.mem_ctrl_0.memoryStateTime::PRE_PDN   5785466000                       # Time in different power states
system.mem_ctrl_0.memoryStateTime::ACT    26139441250                       # Time in different power states
system.mem_ctrl_0.memoryStateTime::ACT_PDN  16318481250                       # Time in different power states
system.mem_ctrl_1.actEnergy                 538156080                       # Energy for activate commands per rank (pJ)
system.mem_ctrl_1.preEnergy                 286021560                       # Energy for precharge commands per rank (pJ)
system.mem_ctrl_1.readEnergy               2937831540                       # Energy for read commands per rank (pJ)
system.mem_ctrl_1.writeEnergy              2095047000                       # Energy for write commands per rank (pJ)
system.mem_ctrl_1.refreshEnergy          4050477600.000000                       # Energy for refresh commands per rank (pJ)
system.mem_ctrl_1.actBackEnergy           12846234780                       # Energy for active background per rank (pJ)
system.mem_ctrl_1.preBackEnergy             186751200                       # Energy for precharge background per rank (pJ)
system.mem_ctrl_1.actPowerDownEnergy       8011256520                       # Energy for active power-down per rank (pJ)
system.mem_ctrl_1.prePowerDownEnergy       1987824480                       # Energy for precharge power-down per rank (pJ)
system.mem_ctrl_1.selfRefreshEnergy        2159666160                       # Energy for self refresh per rank (pJ)
system.mem_ctrl_1.totalEnergy             35102358900                       # Total energy per rank (pJ)
system.mem_ctrl_1.averagePower             588.751985                       # Core power per rank (mW)
system.mem_ctrl_1.totalIdleTime           30956295000                       # Total Idle time Per DRAM Rank
system.mem_ctrl_1.memoryStateTime::IDLE     204994500                       # Time in different power states
system.mem_ctrl_1.memoryStateTime::REF     1713400000                       # Time in different power states
system.mem_ctrl_1.memoryStateTime::SREF    8211691750                       # Time in different power states
system.mem_ctrl_1.memoryStateTime::PRE_PDN   5176681250                       # Time in different power states
system.mem_ctrl_1.memoryStateTime::ACT    26746622250                       # Time in different power states
system.mem_ctrl_1.memoryStateTime::ACT_PDN  17568250250                       # Time in different power states
system.pwrStateResidencyTicks::UNDEFINED  59621640000                       # Cumulative time (in ticks) in various power states
system.cpu.branchPred.lookups                 2352727                       # Number of BP lookups
system.cpu.branchPred.condPredicted           2352727                       # Number of conditional branches predicted
system.cpu.branchPred.condIncorrect              8019                       # Number of conditional branches incorrect
system.cpu.branchPred.BTBLookups              2335053                       # Number of BTB lookups
system.cpu.branchPred.BTBHits                       0                       # Number of BTB hits
system.cpu.branchPred.BTBCorrect                    0                       # Number of correct BTB predictions (this stat may not work properly.
system.cpu.branchPred.BTBHitPct              0.000000                       # BTB Hit Percentage
system.cpu.branchPred.usedRAS                    1937                       # Number of times the RAS was used to get a target.
system.cpu.branchPred.RASInCorrect                413                       # Number of incorrect RAS predictions.
system.cpu.branchPred.indirectLookups         2335053                       # Number of indirect predictor lookups.
system.cpu.branchPred.indirectHits            2293847                       # Number of indirect target hits.
system.cpu.branchPred.indirectMisses            41206                       # Number of indirect misses.
system.cpu.branchPredindirectMispredicted         4465                       # Number of mispredicted indirect branches.
system.cpu.dtb.walker.pwrStateResidencyTicks::UNDEFINED  59621640000                       # Cumulative time (in ticks) in various power states
system.cpu.dtb.rdAccesses                      191765                       # TLB accesses on read requests
system.cpu.dtb.wrAccesses                     2213094                       # TLB accesses on write requests
system.cpu.dtb.rdMisses                          2180                       # TLB misses on read requests
system.cpu.dtb.wrMisses                         41076                       # TLB misses on write requests
system.cpu.apic_clk_domain.clock                16000                       # Clock period in ticks
system.cpu.interrupts.pwrStateResidencyTicks::UNDEFINED  59621640000                       # Cumulative time (in ticks) in various power states
system.cpu.itb.walker.pwrStateResidencyTicks::UNDEFINED  59621640000                       # Cumulative time (in ticks) in various power states
system.cpu.itb.rdAccesses                           0                       # TLB accesses on read requests
system.cpu.itb.wrAccesses                      170902                       # TLB accesses on write requests
system.cpu.itb.rdMisses                             0                       # TLB misses on read requests
system.cpu.itb.wrMisses                           152                       # TLB misses on write requests
system.cpu.workload.numSyscalls                    32                       # Number of system calls
system.cpu.pwrStateResidencyTicks::ON     59621640000                       # Cumulative time (in ticks) in various power states
system.cpu.numCycles                         59621641                       # number of cpu cycles simulated
system.cpu.numWorkItemsStarted                      0                       # number of work items this cpu started
system.cpu.numWorkItemsCompleted                    0                       # number of work items this cpu completed
system.cpu.fetch.icacheStallCycles             200948                       # Number of cycles fetch is stalled on an Icache miss
system.cpu.fetch.Insts                       12661001                       # Number of instructions fetch has processed
system.cpu.fetch.Branches                     2352727                       # Number of branches that fetch encountered
system.cpu.fetch.predictedBranches            2295784                       # Number of branches that fetch has predicted taken
system.cpu.fetch.Cycles                      59383027                       # Number of cycles fetch has run and was not squashing or blocked
system.cpu.fetch.SquashCycles                   16176                       # Number of cycles fetch has spent squashing
system.cpu.fetch.TlbCycles                         68                       # Number of cycles fetch has spent waiting for tlb
system.cpu.fetch.MiscStallCycles                  108                       # Number of cycles fetch has spent waiting on interrupts, or bad addresses, or out of MSHRs
system.cpu.fetch.PendingTrapStallCycles           259                       # Number of stall cycles due to pending traps
system.cpu.fetch.PendingQuiesceStallCycles           12                       # Number of stall cycles due to pending quiesce instructions
system.cpu.fetch.IcacheWaitRetryStallCycles           88                       # Number of stall cycles due to full MSHR
system.cpu.fetch.CacheLines                    170848                       # Number of cache lines fetched
system.cpu.fetch.IcacheSquashes                  2439                       # Number of outstanding Icache misses that were squashed
system.cpu.fetch.rateDist::samples           59592598                       # Number of instructions fetched each cycle (Total)
system.cpu.fetch.rateDist::mean              0.350281                       # Number of instructions fetched each cycle (Total)
system.cpu.fetch.rateDist::stdev             1.594473                       # Number of instructions fetched each cycle (Total)
system.cpu.fetch.rateDist::underflows               0      0.00%      0.00% # Number of instructions fetched each cycle (Total)
system.cpu.fetch.rateDist::0                 56718021     95.18%     95.18% # Number of instructions fetched each cycle (Total)
system.cpu.fetch.rateDist::1                     8470      0.01%     95.19% # Number of instructions fetched each cycle (Total)
system.cpu.fetch.rateDist::2                     3849      0.01%     95.20% # Number of instructions fetched each cycle (Total)
system.cpu.fetch.rateDist::3                    70458      0.12%     95.32% # Number of instructions fetched each cycle (Total)
system.cpu.fetch.rateDist::4                   363651      0.61%     95.93% # Number of instructions fetched each cycle (Total)
system.cpu.fetch.rateDist::5                    69413      0.12%     96.04% # Number of instructions fetched each cycle (Total)
system.cpu.fetch.rateDist::6                     9866      0.02%     96.06% # Number of instructions fetched each cycle (Total)
system.cpu.fetch.rateDist::7                     5194      0.01%     96.07% # Number of instructions fetched each cycle (Total)
system.cpu.fetch.rateDist::8                  2343676      3.93%    100.00% # Number of instructions fetched each cycle (Total)
system.cpu.fetch.rateDist::overflows                0      0.00%    100.00% # Number of instructions fetched each cycle (Total)
system.cpu.fetch.rateDist::min_value                0                       # Number of instructions fetched each cycle (Total)
system.cpu.fetch.rateDist::max_value                8                       # Number of instructions fetched each cycle (Total)
system.cpu.fetch.rateDist::total             59592598                       # Number of instructions fetched each cycle (Total)
system.cpu.fetch.branchRate                  0.039461                       # Number of branch fetches per cycle
system.cpu.fetch.rate                        0.212356                       # Number of inst fetches per cycle
system.cpu.decode.IdleCycles                   951553                       # Number of cycles decode is idle
system.cpu.decode.BlockedCycles              56007440                       # Number of cycles decode is blocked
system.cpu.decode.RunCycles                    522692                       # Number of cycles decode is running
system.cpu.decode.UnblockCycles               2102825                       # Number of cycles decode is unblocking
system.cpu.decode.SquashCycles                   8088                       # Number of cycles decode is squashing
system.cpu.decode.DecodedInsts               20791009                       # Number of instructions handled by decode
system.cpu.rename.SquashCycles                   8088                       # Number of cycles rename is squashing
system.cpu.rename.IdleCycles                  1427823                       # Number of cycles rename is idle
system.cpu.rename.BlockCycles                20566783                       # Number of cycles rename is blocking
system.cpu.rename.serializeStallCycles           1775                       # count of cycles rename stalled for serializing inst
system.cpu.rename.RunCycles                   2131738                       # Number of cycles rename is running
system.cpu.rename.UnblockCycles              35456391                       # Number of cycles rename is unblocking
system.cpu.rename.RenamedInsts               20752214                       # Number of instructions processed by rename
system.cpu.rename.ROBFullEvents                  1824                       # Number of times rename has blocked due to ROB full
system.cpu.rename.IQFullEvents                  41589                       # Number of times rename has blocked due to IQ full
system.cpu.rename.LQFullEvents                   1068                       # Number of times rename has blocked due to LQ full
system.cpu.rename.SQFullEvents               34925984                       # Number of times rename has blocked due to SQ full
system.cpu.rename.RenamedOperands            30034603                       # Number of destination operands rename has renamed
system.cpu.rename.RenameLookups              51345835                       # Number of register rename lookups that rename has made
system.cpu.rename.int_rename_lookups         28112089                       # Number of integer rename lookups
system.cpu.rename.fp_rename_lookups           4391422                       # Number of floating rename lookups
system.cpu.rename.CommittedMaps              29547063                       # Number of HB maps that are committed
system.cpu.rename.UndoneMaps                   487540                       # Number of HB maps that are undone due to squashing
system.cpu.rename.serializingInsts                102                       # count of serializing insts renamed
system.cpu.rename.tempSerializingInsts             72                       # count of temporary serializing insts renamed
system.cpu.rename.skidInsts                  10424504                       # count of insts added to the skid buffer
system.cpu.memDep0.insertedLoads               203395                       # Number of loads inserted to the mem dependence unit.
system.cpu.memDep0.insertedStores             2217972                       # Number of stores inserted to the mem dependence unit.
system.cpu.memDep0.conflictingLoads              1098                       # Number of conflicting loads.
system.cpu.memDep0.conflictingStores              778                       # Number of conflicting stores.
system.cpu.iq.iqInstsAdded                   20686664                       # Number of instructions added to the IQ (excludes non-spec)
system.cpu.iq.iqNonSpecInstsAdded                 154                       # Number of non-speculative instructions added to the IQ
system.cpu.iq.iqInstsIssued                  20585160                       # Number of instructions issued
system.cpu.iq.iqSquashedInstsIssued              2674                       # Number of squashed instructions issued
system.cpu.iq.iqSquashedInstsExamined          322140                       # Number of squashed instructions iterated over during squash; mainly for profiling
system.cpu.iq.iqSquashedOperandsExamined       464618                       # Number of squashed operands that are examined and possibly removed from graph
system.cpu.iq.iqSquashedNonSpecRemoved            110                       # Number of squashed non-spec instructions that were removed
system.cpu.iq.issued_per_cycle::samples      59592598                       # Number of insts issued each cycle
system.cpu.iq.issued_per_cycle::mean         0.345431                       # Number of insts issued each cycle
system.cpu.iq.issued_per_cycle::stdev        1.235395                       # Number of insts issued each cycle
system.cpu.iq.issued_per_cycle::underflows            0      0.00%      0.00% # Number of insts issued each cycle
system.cpu.iq.issued_per_cycle::0            54057084     90.71%     90.71% # Number of insts issued each cycle
system.cpu.iq.issued_per_cycle::1              999452      1.68%     92.39% # Number of insts issued each cycle
system.cpu.iq.issued_per_cycle::2             1232365      2.07%     94.46% # Number of insts issued each cycle
system.cpu.iq.issued_per_cycle::3              135408      0.23%     94.68% # Number of insts issued each cycle
system.cpu.iq.issued_per_cycle::4              708922      1.19%     95.87% # Number of insts issued each cycle
system.cpu.iq.issued_per_cycle::5             1133605      1.90%     97.78% # Number of insts issued each cycle
system.cpu.iq.issued_per_cycle::6             1153814      1.94%     99.71% # Number of insts issued each cycle
system.cpu.iq.issued_per_cycle::7               87427      0.15%     99.86% # Number of insts issued each cycle
system.cpu.iq.issued_per_cycle::8               84521      0.14%    100.00% # Number of insts issued each cycle
system.cpu.iq.issued_per_cycle::overflows            0      0.00%    100.00% # Number of insts issued each cycle
system.cpu.iq.issued_per_cycle::min_value            0                       # Number of insts issued each cycle
system.cpu.iq.issued_per_cycle::max_value            8                       # Number of insts issued each cycle
system.cpu.iq.issued_per_cycle::total        59592598                       # Number of insts issued each cycle
system.cpu.iq.fu_full::No_OpClass                   0      0.00%      0.00% # attempts to use FU when none available
system.cpu.iq.fu_full::IntAlu                    9231      5.05%      5.05% # attempts to use FU when none available
system.cpu.iq.fu_full::IntMult                      0      0.00%      5.05% # attempts to use FU when none available
system.cpu.iq.fu_full::IntDiv                       0      0.00%      5.05% # attempts to use FU when none available
system.cpu.iq.fu_full::FloatAdd                     0      0.00%      5.05% # attempts to use FU when none available
system.cpu.iq.fu_full::FloatCmp                     0      0.00%      5.05% # attempts to use FU when none available
system.cpu.iq.fu_full::FloatCvt                     0      0.00%      5.05% # attempts to use FU when none available
system.cpu.iq.fu_full::FloatMult                    0      0.00%      5.05% # attempts to use FU when none available
system.cpu.iq.fu_full::FloatMultAcc                 0      0.00%      5.05% # attempts to use FU when none available
system.cpu.iq.fu_full::FloatDiv                     0      0.00%      5.05% # attempts to use FU when none available
system.cpu.iq.fu_full::FloatMisc                    0      0.00%      5.05% # attempts to use FU when none available
system.cpu.iq.fu_full::FloatSqrt                    0      0.00%      5.05% # attempts to use FU when none available
system.cpu.iq.fu_full::SimdAdd                      3      0.00%      5.06% # attempts to use FU when none available
system.cpu.iq.fu_full::SimdAddAcc                   0      0.00%      5.06% # attempts to use FU when none available
system.cpu.iq.fu_full::SimdAlu                  31256     17.11%     22.17% # attempts to use FU when none available
system.cpu.iq.fu_full::SimdCmp                      0      0.00%     22.17% # attempts to use FU when none available
system.cpu.iq.fu_full::SimdCvt                  78139     42.78%     64.94% # attempts to use FU when none available
system.cpu.iq.fu_full::SimdMisc                 62494     34.21%     99.16% # attempts to use FU when none available
system.cpu.iq.fu_full::SimdMult                     0      0.00%     99.16% # attempts to use FU when none available
system.cpu.iq.fu_full::SimdMultAcc                  0      0.00%     99.16% # attempts to use FU when none available
system.cpu.iq.fu_full::SimdShift                    1      0.00%     99.16% # attempts to use FU when none available
system.cpu.iq.fu_full::SimdShiftAcc                 0      0.00%     99.16% # attempts to use FU when none available
system.cpu.iq.fu_full::SimdSqrt                     0      0.00%     99.16% # attempts to use FU when none available
system.cpu.iq.fu_full::SimdFloatAdd                 0      0.00%     99.16% # attempts to use FU when none available
system.cpu.iq.fu_full::SimdFloatAlu                 0      0.00%     99.16% # attempts to use FU when none available
system.cpu.iq.fu_full::SimdFloatCmp                 0      0.00%     99.16% # attempts to use FU when none available
system.cpu.iq.fu_full::SimdFloatCvt                 0      0.00%     99.16% # attempts to use FU when none available
system.cpu.iq.fu_full::SimdFloatDiv                 0      0.00%     99.16% # attempts to use FU when none available
system.cpu.iq.fu_full::SimdFloatMisc                0      0.00%     99.16% # attempts to use FU when none available
system.cpu.iq.fu_full::SimdFloatMult                0      0.00%     99.16% # attempts to use FU when none available
system.cpu.iq.fu_full::SimdFloatMultAcc             0      0.00%     99.16% # attempts to use FU when none available
system.cpu.iq.fu_full::SimdFloatSqrt                0      0.00%     99.16% # attempts to use FU when none available
system.cpu.iq.fu_full::SimdAes                      0      0.00%     99.16% # attempts to use FU when none available
system.cpu.iq.fu_full::SimdAesMix                   0      0.00%     99.16% # attempts to use FU when none available
system.cpu.iq.fu_full::SimdSha1Hash                 0      0.00%     99.16% # attempts to use FU when none available
system.cpu.iq.fu_full::SimdSha1Hash2                0      0.00%     99.16% # attempts to use FU when none available
system.cpu.iq.fu_full::SimdSha256Hash               0      0.00%     99.16% # attempts to use FU when none available
system.cpu.iq.fu_full::SimdSha256Hash2              0      0.00%     99.16% # attempts to use FU when none available
system.cpu.iq.fu_full::SimdShaSigma2                0      0.00%     99.16% # attempts to use FU when none available
system.cpu.iq.fu_full::SimdShaSigma3                0      0.00%     99.16% # attempts to use FU when none available
system.cpu.iq.fu_full::MemRead                    959      0.53%     99.68% # attempts to use FU when none available
system.cpu.iq.fu_full::MemWrite                   492      0.27%     99.95% # attempts to use FU when none available
system.cpu.iq.fu_full::FloatMemRead                39      0.02%     99.97% # attempts to use FU when none available
system.cpu.iq.fu_full::FloatMemWrite               49      0.03%    100.00% # attempts to use FU when none available
system.cpu.iq.fu_full::IprAccess                    0      0.00%    100.00% # attempts to use FU when none available
system.cpu.iq.fu_full::InstPrefetch                 0      0.00%    100.00% # attempts to use FU when none available
system.cpu.iq.FU_type_0::No_OpClass              3756      0.02%      0.02% # Type of FU issued
system.cpu.iq.FU_type_0::IntAlu              16665228     80.96%     80.98% # Type of FU issued
system.cpu.iq.FU_type_0::IntMult                 1437      0.01%     80.98% # Type of FU issued
system.cpu.iq.FU_type_0::IntDiv                  1230      0.01%     80.99% # Type of FU issued
system.cpu.iq.FU_type_0::FloatAdd                 260      0.00%     80.99% # Type of FU issued
system.cpu.iq.FU_type_0::FloatCmp                   0      0.00%     80.99% # Type of FU issued
system.cpu.iq.FU_type_0::FloatCvt                   0      0.00%     80.99% # Type of FU issued
system.cpu.iq.FU_type_0::FloatMult                  0      0.00%     80.99% # Type of FU issued
system.cpu.iq.FU_type_0::FloatMultAcc               0      0.00%     80.99% # Type of FU issued
system.cpu.iq.FU_type_0::FloatDiv                   0      0.00%     80.99% # Type of FU issued
system.cpu.iq.FU_type_0::FloatMisc                  0      0.00%     80.99% # Type of FU issued
system.cpu.iq.FU_type_0::FloatSqrt                  0      0.00%     80.99% # Type of FU issued
system.cpu.iq.FU_type_0::SimdAdd               500439      2.43%     83.42% # Type of FU issued
system.cpu.iq.FU_type_0::SimdAddAcc                 0      0.00%     83.42% # Type of FU issued
system.cpu.iq.FU_type_0::SimdAlu               126054      0.61%     84.03% # Type of FU issued
system.cpu.iq.FU_type_0::SimdCmp                    6      0.00%     84.03% # Type of FU issued
system.cpu.iq.FU_type_0::SimdCvt               126174      0.61%     84.65% # Type of FU issued
system.cpu.iq.FU_type_0::SimdMisc              750638      3.65%     88.29% # Type of FU issued
system.cpu.iq.FU_type_0::SimdMult                   0      0.00%     88.29% # Type of FU issued
system.cpu.iq.FU_type_0::SimdMultAcc                0      0.00%     88.29% # Type of FU issued
system.cpu.iq.FU_type_0::SimdShift                362      0.00%     88.29% # Type of FU issued
system.cpu.iq.FU_type_0::SimdShiftAcc               0      0.00%     88.29% # Type of FU issued
system.cpu.iq.FU_type_0::SimdSqrt                   0      0.00%     88.29% # Type of FU issued
system.cpu.iq.FU_type_0::SimdFloatAdd               0      0.00%     88.29% # Type of FU issued
system.cpu.iq.FU_type_0::SimdFloatAlu               0      0.00%     88.29% # Type of FU issued
system.cpu.iq.FU_type_0::SimdFloatCmp               0      0.00%     88.29% # Type of FU issued
system.cpu.iq.FU_type_0::SimdFloatCvt               0      0.00%     88.29% # Type of FU issued
system.cpu.iq.FU_type_0::SimdFloatDiv               0      0.00%     88.29% # Type of FU issued
system.cpu.iq.FU_type_0::SimdFloatMisc              0      0.00%     88.29% # Type of FU issued
system.cpu.iq.FU_type_0::SimdFloatMult              0      0.00%     88.29% # Type of FU issued
system.cpu.iq.FU_type_0::SimdFloatMultAcc            0      0.00%     88.29% # Type of FU issued
system.cpu.iq.FU_type_0::SimdFloatSqrt              0      0.00%     88.29% # Type of FU issued
system.cpu.iq.FU_type_0::SimdAes                    0      0.00%     88.29% # Type of FU issued
system.cpu.iq.FU_type_0::SimdAesMix                 0      0.00%     88.29% # Type of FU issued
system.cpu.iq.FU_type_0::SimdSha1Hash               0      0.00%     88.29% # Type of FU issued
system.cpu.iq.FU_type_0::SimdSha1Hash2              0      0.00%     88.29% # Type of FU issued
system.cpu.iq.FU_type_0::SimdSha256Hash             0      0.00%     88.29% # Type of FU issued
system.cpu.iq.FU_type_0::SimdSha256Hash2            0      0.00%     88.29% # Type of FU issued
system.cpu.iq.FU_type_0::SimdShaSigma2              0      0.00%     88.29% # Type of FU issued
system.cpu.iq.FU_type_0::SimdShaSigma3              0      0.00%     88.29% # Type of FU issued
system.cpu.iq.FU_type_0::MemRead                68482      0.33%     88.63% # Type of FU issued
system.cpu.iq.FU_type_0::MemWrite             2213537     10.75%     99.38% # Type of FU issued
system.cpu.iq.FU_type_0::FloatMemRead          127072      0.62%    100.00% # Type of FU issued
system.cpu.iq.FU_type_0::FloatMemWrite            485      0.00%    100.00% # Type of FU issued
system.cpu.iq.FU_type_0::IprAccess                  0      0.00%    100.00% # Type of FU issued
system.cpu.iq.FU_type_0::InstPrefetch               0      0.00%    100.00% # Type of FU issued
system.cpu.iq.FU_type_0::total               20585160                       # Type of FU issued
system.cpu.iq.rate                           0.345263                       # Inst issue rate
system.cpu.iq.fu_busy_cnt                      182663                       # FU busy when requested
system.cpu.iq.fu_busy_rate                   0.008874                       # FU busy rate (busy events/executed inst)
system.cpu.iq.int_inst_queue_reads           96763023                       # Number of integer instruction queue reads
system.cpu.iq.int_inst_queue_writes          18994059                       # Number of integer instruction queue writes
system.cpu.iq.int_inst_queue_wakeup_accesses     18547768                       # Number of integer instruction queue wakeup accesses
system.cpu.iq.fp_inst_queue_reads             4185232                       # Number of floating instruction queue reads
system.cpu.iq.fp_inst_queue_writes            2014949                       # Number of floating instruction queue writes
system.cpu.iq.fp_inst_queue_wakeup_accesses      2005803                       # Number of floating instruction queue wakeup accesses
system.cpu.iq.vec_inst_queue_reads                  0                       # Number of vector instruction queue reads
system.cpu.iq.vec_inst_queue_writes                 0                       # Number of vector instruction queue writes
system.cpu.iq.vec_inst_queue_wakeup_accesses            0                       # Number of vector instruction queue wakeup accesses
system.cpu.iq.int_alu_accesses               18585510                       # Number of integer alu accesses
system.cpu.iq.fp_alu_accesses                 2178557                       # Number of floating point alu accesses
system.cpu.iq.vec_alu_accesses                      0                       # Number of vector alu accesses
system.cpu.iew.lsq.thread0.forwLoads             2611                       # Number of loads that had data forwarded from stores
system.cpu.iew.lsq.thread0.invAddrLoads             0                       # Number of loads ignored due to an invalid address
system.cpu.iew.lsq.thread0.squashedLoads        42013                       # Number of loads squashed
system.cpu.iew.lsq.thread0.ignoredResponses           13                       # Number of memory responses ignored because the instruction is squashed
system.cpu.iew.lsq.thread0.memOrderViolation           55                       # Number of memory ordering violations
system.cpu.iew.lsq.thread0.squashedStores         9390                       # Number of stores squashed
system.cpu.iew.lsq.thread0.invAddrSwpfs             0                       # Number of software prefetches ignored due to an invalid address
system.cpu.iew.lsq.thread0.blockedLoads             0                       # Number of blocked loads due to partial load-store forwarding
system.cpu.iew.lsq.thread0.rescheduledLoads            2                       # Number of loads that were rescheduled
system.cpu.iew.lsq.thread0.cacheBlocked           289                       # Number of times an access to memory failed due to the cache being blocked
system.cpu.iew.iewIdleCycles                        0                       # Number of cycles IEW is idle
system.cpu.iew.iewSquashCycles                   8088                       # Number of cycles IEW is squashing
system.cpu.iew.iewBlockCycles                  892435                       # Number of cycles IEW is blocking
system.cpu.iew.iewUnblockCycles              19610942                       # Number of cycles IEW is unblocking
system.cpu.iew.iewDispatchedInsts            20686818                       # Number of instructions dispatched to IQ
system.cpu.iew.iewDispSquashedInsts               375                       # Number of squashed instructions skipped by dispatch
system.cpu.iew.iewDispLoadInsts                203395                       # Number of dispatched load instructions
system.cpu.iew.iewDispStoreInsts              2217972                       # Number of dispatched store instructions
system.cpu.iew.iewDispNonSpecInsts                 88                       # Number of dispatched non-speculative instructions
system.cpu.iew.iewIQFullEvents                    895                       # Number of times the IQ has become full, causing a stall
system.cpu.iew.iewLSQFullEvents              19609859                       # Number of times the LSQ has become full, causing a stall
system.cpu.iew.memOrderViolationEvents             55                       # Number of memory order violations
system.cpu.iew.predictedTakenIncorrect           2172                       # Number of branches that were predicted taken incorrectly
system.cpu.iew.predictedNotTakenIncorrect         8042                       # Number of branches that were predicted not taken incorrectly
system.cpu.iew.branchMispredicts                10214                       # Number of branch mispredicts detected at execute
system.cpu.iew.iewExecutedInsts              20567287                       # Number of executed instructions
system.cpu.iew.iewExecLoadInsts                191696                       # Number of load instructions executed
system.cpu.iew.iewExecSquashedInsts             17873                       # Number of squashed instructions skipped in execute
system.cpu.iew.exec_swp                             0                       # number of swp insts executed
system.cpu.iew.exec_nop                             0                       # number of nop insts executed
system.cpu.iew.exec_refs                      2404785                       # number of memory reference insts executed
system.cpu.iew.exec_branches                  2305548                       # Number of branches executed
system.cpu.iew.exec_stores                    2213089                       # Number of stores executed
system.cpu.iew.exec_rate                     0.344963                       # Inst execution rate
system.cpu.iew.wb_sent                       20559315                       # cumulative count of insts sent to commit
system.cpu.iew.wb_count                      20553571                       # cumulative count of insts written-back
system.cpu.iew.wb_producers                  11382021                       # num instructions producing a value
system.cpu.iew.wb_consumers                  17229973                       # num instructions consuming a value
system.cpu.iew.wb_rate                       0.344733                       # insts written-back per cycle
system.cpu.iew.wb_fanout                     0.660594                       # average fanout of values written-back
system.cpu.commit.commitSquashedInsts          323332                       # The number of squashed insts skipped by commit
system.cpu.commit.commitNonSpecStalls              44                       # The number of times commit has been forced to stall to communicate backwards
system.cpu.commit.branchMispredicts              8048                       # The number of times a branch was mispredicted
system.cpu.commit.committed_per_cycle::samples     59544802                       # Number of insts commited each cycle
system.cpu.commit.committed_per_cycle::mean     0.342006                       # Number of insts commited each cycle
system.cpu.commit.committed_per_cycle::stdev     1.264907                       # Number of insts commited each cycle
system.cpu.commit.committed_per_cycle::underflows            0      0.00%      0.00% # Number of insts commited each cycle
system.cpu.commit.committed_per_cycle::0     54075663     90.82%     90.82% # Number of insts commited each cycle
system.cpu.commit.committed_per_cycle::1       896147      1.50%     92.32% # Number of insts commited each cycle
system.cpu.commit.committed_per_cycle::2      1119885      1.88%     94.20% # Number of insts commited each cycle
system.cpu.commit.committed_per_cycle::3      1086721      1.83%     96.03% # Number of insts commited each cycle
system.cpu.commit.committed_per_cycle::4        37869      0.06%     96.09% # Number of insts commited each cycle
system.cpu.commit.committed_per_cycle::5      1601411      2.69%     98.78% # Number of insts commited each cycle
system.cpu.commit.committed_per_cycle::6         2720      0.00%     98.78% # Number of insts commited each cycle
system.cpu.commit.committed_per_cycle::7         1342      0.00%     98.79% # Number of insts commited each cycle
system.cpu.commit.committed_per_cycle::8       723044      1.21%    100.00% # Number of insts commited each cycle
system.cpu.commit.committed_per_cycle::overflows            0      0.00%    100.00% # Number of insts commited each cycle
system.cpu.commit.committed_per_cycle::min_value            0                       # Number of insts commited each cycle
system.cpu.commit.committed_per_cycle::max_value            8                       # Number of insts commited each cycle
system.cpu.commit.committed_per_cycle::total     59544802                       # Number of insts commited each cycle
system.cpu.commit.committedInsts             12389449                       # Number of instructions committed
system.cpu.commit.committedOps               20364677                       # Number of ops (including micro ops) committed
system.cpu.commit.swp_count                         0                       # Number of s/w prefetches committed
system.cpu.commit.refs                        2369964                       # Number of memory references committed
system.cpu.commit.loads                        161382                       # Number of loads committed
system.cpu.commit.membars                           8                       # Number of memory barriers committed
system.cpu.commit.branches                    2292533                       # Number of branches committed
system.cpu.commit.vec_insts                         0                       # Number of committed Vector instructions.
system.cpu.commit.fp_insts                    2003575                       # Number of committed floating point instructions.
system.cpu.commit.int_insts                  18486085                       # Number of committed integer instructions.
system.cpu.commit.function_calls                  665                       # Number of function calls committed.
system.cpu.commit.op_class_0::No_OpClass         1498      0.01%      0.01% # Class of committed instruction
system.cpu.commit.op_class_0::IntAlu         16488740     80.97%     80.97% # Class of committed instruction
system.cpu.commit.op_class_0::IntMult            1015      0.00%     80.98% # Class of committed instruction
system.cpu.commit.op_class_0::IntDiv             1142      0.01%     80.99% # Class of committed instruction
system.cpu.commit.op_class_0::FloatAdd             29      0.00%     80.99% # Class of committed instruction
system.cpu.commit.op_class_0::FloatCmp              0      0.00%     80.99% # Class of committed instruction
system.cpu.commit.op_class_0::FloatCvt              0      0.00%     80.99% # Class of committed instruction
system.cpu.commit.op_class_0::FloatMult             0      0.00%     80.99% # Class of committed instruction
system.cpu.commit.op_class_0::FloatMultAcc            0      0.00%     80.99% # Class of committed instruction
system.cpu.commit.op_class_0::FloatDiv              0      0.00%     80.99% # Class of committed instruction
system.cpu.commit.op_class_0::FloatMisc             0      0.00%     80.99% # Class of committed instruction
system.cpu.commit.op_class_0::FloatSqrt             0      0.00%     80.99% # Class of committed instruction
system.cpu.commit.op_class_0::SimdAdd          500322      2.46%     83.44% # Class of committed instruction
system.cpu.commit.op_class_0::SimdAddAcc            0      0.00%     83.44% # Class of committed instruction
system.cpu.commit.op_class_0::SimdAlu          125493      0.62%     84.06% # Class of committed instruction
system.cpu.commit.op_class_0::SimdCmp               6      0.00%     84.06% # Class of committed instruction
system.cpu.commit.op_class_0::SimdCvt          125754      0.62%     84.68% # Class of committed instruction
system.cpu.commit.op_class_0::SimdMisc         750531      3.69%     88.36% # Class of committed instruction
system.cpu.commit.op_class_0::SimdMult              0      0.00%     88.36% # Class of committed instruction
system.cpu.commit.op_class_0::SimdMultAcc            0      0.00%     88.36% # Class of committed instruction
system.cpu.commit.op_class_0::SimdShift           183      0.00%     88.36% # Class of committed instruction
system.cpu.commit.op_class_0::SimdShiftAcc            0      0.00%     88.36% # Class of committed instruction
system.cpu.commit.op_class_0::SimdSqrt              0      0.00%     88.36% # Class of committed instruction
system.cpu.commit.op_class_0::SimdFloatAdd            0      0.00%     88.36% # Class of committed instruction
system.cpu.commit.op_class_0::SimdFloatAlu            0      0.00%     88.36% # Class of committed instruction
system.cpu.commit.op_class_0::SimdFloatCmp            0      0.00%     88.36% # Class of committed instruction
system.cpu.commit.op_class_0::SimdFloatCvt            0      0.00%     88.36% # Class of committed instruction
system.cpu.commit.op_class_0::SimdFloatDiv            0      0.00%     88.36% # Class of committed instruction
system.cpu.commit.op_class_0::SimdFloatMisc            0      0.00%     88.36% # Class of committed instruction
system.cpu.commit.op_class_0::SimdFloatMult            0      0.00%     88.36% # Class of committed instruction
system.cpu.commit.op_class_0::SimdFloatMultAcc            0      0.00%     88.36% # Class of committed instruction
system.cpu.commit.op_class_0::SimdFloatSqrt            0      0.00%     88.36% # Class of committed instruction
system.cpu.commit.op_class_0::SimdAes               0      0.00%     88.36% # Class of committed instruction
system.cpu.commit.op_class_0::SimdAesMix            0      0.00%     88.36% # Class of committed instruction
system.cpu.commit.op_class_0::SimdSha1Hash            0      0.00%     88.36% # Class of committed instruction
system.cpu.commit.op_class_0::SimdSha1Hash2            0      0.00%     88.36% # Class of committed instruction
system.cpu.commit.op_class_0::SimdSha256Hash            0      0.00%     88.36% # Class of committed instruction
system.cpu.commit.op_class_0::SimdSha256Hash2            0      0.00%     88.36% # Class of committed instruction
system.cpu.commit.op_class_0::SimdShaSigma2            0      0.00%     88.36% # Class of committed instruction
system.cpu.commit.op_class_0::SimdShaSigma3            0      0.00%     88.36% # Class of committed instruction
system.cpu.commit.op_class_0::MemRead           35572      0.17%     88.54% # Class of committed instruction
system.cpu.commit.op_class_0::MemWrite        2208198     10.84%     99.38% # Class of committed instruction
system.cpu.commit.op_class_0::FloatMemRead       125810      0.62%    100.00% # Class of committed instruction
system.cpu.commit.op_class_0::FloatMemWrite          384      0.00%    100.00% # Class of committed instruction
system.cpu.commit.op_class_0::IprAccess             0      0.00%    100.00% # Class of committed instruction
system.cpu.commit.op_class_0::InstPrefetch            0      0.00%    100.00% # Class of committed instruction
system.cpu.commit.op_class_0::total          20364677                       # Class of committed instruction
system.cpu.commit.bw_lim_events                723044                       # number cycles where commit BW limit reached
system.cpu.rob.rob_reads                     79509767                       # The number of ROB reads
system.cpu.rob.rob_writes                    41424361                       # The number of ROB writes
system.cpu.timesIdled                             740                       # Number of times that the entire CPU went into an idle state and unscheduled itself
system.cpu.idleCycles                           29043                       # Total number of cycles that the CPU has spent unscheduled due to idling
system.cpu.committedInsts                    12389449                       # Number of Instructions Simulated
system.cpu.committedOps                      20364677                       # Number of Ops (including micro ops) Simulated
system.cpu.cpi                               4.812292                       # CPI: Cycles Per Instruction
system.cpu.cpi_total                         4.812292                       # CPI: Total CPI of All Threads
system.cpu.ipc                               0.207801                       # IPC: Instructions Per Cycle
system.cpu.ipc_total                         0.207801                       # IPC: Total IPC of All Threads
system.cpu.int_regfile_reads                 27779708                       # number of integer regfile reads
system.cpu.int_regfile_writes                14034256                       # number of integer regfile writes
system.cpu.fp_regfile_reads                   4383970                       # number of floating regfile reads
system.cpu.fp_regfile_writes                  2004943                       # number of floating regfile writes
system.cpu.cc_regfile_reads                  11545021                       # number of cc regfile reads
system.cpu.cc_regfile_writes                 13737398                       # number of cc regfile writes
system.cpu.misc_regfile_reads                 7037066                       # number of misc regfile reads
system.cpu.dcache.tags.pwrStateResidencyTicks::UNDEFINED  59621640000                       # Cumulative time (in ticks) in various power states
system.cpu.dcache.tags.tagsinuse           255.927187                       # Cycle average of tags in use
system.cpu.dcache.tags.total_refs             2337801                       # Total number of references to valid blocks.
system.cpu.dcache.tags.sampled_refs            784276                       # Sample count of references to valid blocks.
system.cpu.dcache.tags.avg_refs              2.980840                       # Average number of references to valid blocks.
system.cpu.dcache.tags.warmup_cycle            160000                       # Cycle when the warmup percentage was hit.
system.cpu.dcache.tags.occ_blocks::.cpu.data   255.927187                       # Average occupied blocks per requestor
system.cpu.dcache.tags.occ_percent::.cpu.data     0.999716                       # Average percentage of cache occupancy
system.cpu.dcache.tags.occ_percent::total     0.999716                       # Average percentage of cache occupancy
system.cpu.dcache.tags.occ_task_id_blocks::1024          256                       # Occupied blocks per task id
system.cpu.dcache.tags.age_task_id_blocks_1024::0           59                       # Occupied blocks per task id
[...]
system.cpu.dcache.ReadReq_mshr_misses::.cpu.data        18511                       # number of ReadReq MSHR misses
system.cpu.dcache.ReadReq_mshr_misses::total        18511                       # number of ReadReq MSHR misses
system.cpu.dcache.WriteReq_mshr_misses::.cpu.data       765765                       # number of WriteReq MSHR misses
system.cpu.dcache.WriteReq_mshr_misses::total       765765                       # number of WriteReq MSHR misses
system.cpu.dcache.demand_mshr_misses::.cpu.data       784276                       # number of demand (read+write) MSHR misses
system.cpu.dcache.demand_mshr_misses::total       784276                       # number of demand (read+write) MSHR misses
system.cpu.dcache.overall_mshr_misses::.cpu.data       784276                       # number of overall MSHR misses
system.cpu.dcache.overall_mshr_misses::total       784276                       # number of overall MSHR misses
system.cpu.dcache.ReadReq_mshr_miss_latency::.cpu.data   1161771000                       # number of ReadReq MSHR miss cycles
system.cpu.dcache.ReadReq_mshr_miss_latency::total   1161771000                       # number of ReadReq MSHR miss cycles
system.cpu.dcache.WriteReq_mshr_miss_latency::.cpu.data  52798397998                       # number of WriteReq MSHR miss cycles
system.cpu.dcache.WriteReq_mshr_miss_latency::total  52798397998                       # number of WriteReq MSHR miss cycles
system.cpu.dcache.demand_mshr_miss_latency::.cpu.data  53960168998                       # number of demand (read+write) MSHR miss cycles
system.cpu.dcache.demand_mshr_miss_latency::total  53960168998                       # number of demand (read+write) MSHR miss cycles
system.cpu.dcache.overall_mshr_miss_latency::.cpu.data  53960168998                       # number of overall MSHR miss cycles
system.cpu.dcache.overall_mshr_miss_latency::total  53960168998                       # number of overall MSHR miss cycles
system.cpu.dcache.ReadReq_mshr_miss_rate::.cpu.data     0.098885                       # mshr miss rate for ReadReq accesses
system.cpu.dcache.ReadReq_mshr_miss_rate::total     0.098885                       # mshr miss rate for ReadReq accesses
system.cpu.dcache.WriteReq_mshr_miss_rate::.cpu.data     0.346722                       # mshr miss rate for WriteReq accesses
system.cpu.dcache.WriteReq_mshr_miss_rate::total     0.346722                       # mshr miss rate for WriteReq accesses
system.cpu.dcache.demand_mshr_miss_rate::.cpu.data     0.327357                       # mshr miss rate for demand accesses
system.cpu.dcache.demand_mshr_miss_rate::total     0.327357                       # mshr miss rate for demand accesses
system.cpu.dcache.overall_mshr_miss_rate::.cpu.data     0.327357                       # mshr miss rate for overall accesses
system.cpu.dcache.overall_mshr_miss_rate::total     0.327357                       # mshr miss rate for overall accesses
system.cpu.dcache.ReadReq_avg_mshr_miss_latency::.cpu.data 62761.115013                       # average ReadReq mshr miss latency
system.cpu.dcache.ReadReq_avg_mshr_miss_latency::total 62761.115013                       # average ReadReq mshr miss latency
system.cpu.dcache.WriteReq_avg_mshr_miss_latency::.cpu.data 68948.565158                       # average WriteReq mshr miss latency
system.cpu.dcache.WriteReq_avg_mshr_miss_latency::total 68948.565158                       # average WriteReq mshr miss latency
system.cpu.dcache.demand_avg_mshr_miss_latency::.cpu.data 68802.524874                       # average overall mshr miss latency
system.cpu.dcache.demand_avg_mshr_miss_latency::total 68802.524874                       # average overall mshr miss latency
system.cpu.dcache.overall_avg_mshr_miss_latency::.cpu.data 68802.524874                       # average overall mshr miss latency
system.cpu.dcache.overall_avg_mshr_miss_latency::total 68802.524874                       # average overall mshr miss latency
system.cpu.dcache.replacements                 784020                       # number of replacements
system.cpu.icache.tags.pwrStateResidencyTicks::UNDEFINED  59621640000                       # Cumulative time (in ticks) in various power states
system.cpu.icache.tags.tagsinuse           255.948706                       # Cycle average of tags in use
system.cpu.icache.tags.total_refs              170485                       # Total number of references to valid blocks.
system.cpu.icache.tags.sampled_refs              1361                       # Sample count of references to valid blocks.
system.cpu.icache.tags.avg_refs            125.264511                       # Average number of references to valid blocks.
system.cpu.icache.tags.warmup_cycle             77000                       # Cycle when the warmup percentage was hit.
system.cpu.icache.tags.occ_blocks::.cpu.inst   255.948706                       # Average occupied blocks per requestor
system.cpu.icache.tags.occ_percent::.cpu.inst     0.999800                       # Average percentage of cache occupancy
system.cpu.icache.tags.occ_percent::total     0.999800                       # Average percentage of cache occupancy
system.cpu.icache.tags.occ_task_id_blocks::1024          256                       # Occupied blocks per task id
system.cpu.icache.tags.age_task_id_blocks_1024::0          141                       # Occupied blocks per task id
system.cpu.icache.tags.age_task_id_blocks_1024::1           51                       # Occupied blocks per task id
system.cpu.icache.tags.age_task_id_blocks_1024::4           64                       # Occupied blocks per task id
system.cpu.icache.tags.occ_task_id_percent::1024            1                       # Percentage of cache occupancy per task id
system.cpu.icache.tags.tag_accesses            343055                       # Number of tag accesses
system.cpu.icache.tags.data_accesses           343055                       # Number of data accesses
system.cpu.icache.pwrStateResidencyTicks::UNDEFINED  59621640000                       # Cumulative time (in ticks) in various power states
system.cpu.icache.ReadReq_hits::.cpu.inst       169124                       # number of ReadReq hits
system.cpu.icache.ReadReq_hits::total          169124                       # number of ReadReq hits
system.cpu.icache.demand_hits::.cpu.inst       169124                       # number of demand (read+write) hits
system.cpu.icache.demand_hits::total           169124                       # number of demand (read+write) hits
system.cpu.icache.overall_hits::.cpu.inst       169124                       # number of overall hits
system.cpu.icache.overall_hits::total          169124                       # number of overall hits
system.cpu.icache.ReadReq_misses::.cpu.inst         1723                       # number of ReadReq misses
system.cpu.icache.ReadReq_misses::total          1723                       # number of ReadReq misses
system.cpu.icache.demand_misses::.cpu.inst         1723                       # number of demand (read+write) misses
system.cpu.icache.demand_misses::total           1723                       # number of demand (read+write) misses
system.cpu.icache.overall_misses::.cpu.inst         1723                       # number of overall misses
system.cpu.icache.overall_misses::total          1723                       # number of overall misses
system.cpu.icache.ReadReq_miss_latency::.cpu.inst    108801999                       # number of ReadReq miss cycles
system.cpu.icache.ReadReq_miss_latency::total    108801999                       # number of ReadReq miss cycles
system.cpu.icache.demand_miss_latency::.cpu.inst    108801999                       # number of demand (read+write) miss cycles
system.cpu.icache.demand_miss_latency::total    108801999                       # number of demand (read+write) miss cycles
system.cpu.icache.overall_miss_latency::.cpu.inst    108801999                       # number of overall miss cycles
system.cpu.icache.overall_miss_latency::total    108801999                       # number of overall miss cycles
system.cpu.icache.ReadReq_accesses::.cpu.inst       170847                       # number of ReadReq accesses(hits+misses)
system.cpu.icache.ReadReq_accesses::total       170847                       # number of ReadReq accesses(hits+misses)
system.cpu.icache.demand_accesses::.cpu.inst       170847                       # number of demand (read+write) accesses
system.cpu.icache.demand_accesses::total       170847                       # number of demand (read+write) accesses
system.cpu.icache.overall_accesses::.cpu.inst       170847                       # number of overall (read+write) accesses
system.cpu.icache.overall_accesses::total       170847                       # number of overall (read+write) accesses
system.cpu.icache.ReadReq_miss_rate::.cpu.inst     0.010085                       # miss rate for ReadReq accesses
system.cpu.icache.ReadReq_miss_rate::total     0.010085                       # miss rate for ReadReq accesses
system.cpu.icache.demand_miss_rate::.cpu.inst     0.010085                       # miss rate for demand accesses
system.cpu.icache.demand_miss_rate::total     0.010085                       # miss rate for demand accesses
system.cpu.icache.overall_miss_rate::.cpu.inst     0.010085                       # miss rate for overall accesses
system.cpu.icache.overall_miss_rate::total     0.010085                       # miss rate for overall accesses
system.cpu.icache.ReadReq_avg_miss_latency::.cpu.inst 63146.836332                       # average ReadReq miss latency
system.cpu.icache.ReadReq_avg_miss_latency::total 63146.836332                       # average ReadReq miss latency
system.cpu.icache.demand_avg_miss_latency::.cpu.inst 63146.836332                       # average overall miss latency
system.cpu.icache.demand_avg_miss_latency::total 63146.836332                       # average overall miss latency
system.cpu.icache.overall_avg_miss_latency::.cpu.inst 63146.836332                       # average overall miss latency
system.cpu.icache.overall_avg_miss_latency::total 63146.836332                       # average overall miss latency
system.cpu.icache.blocked_cycles::no_mshrs          356                       # number of cycles access was blocked
system.cpu.icache.blocked_cycles::no_targets            0                       # number of cycles access was blocked
system.cpu.icache.blocked::no_mshrs                10                       # number of cycles access was blocked
system.cpu.icache.blocked::no_targets               0                       # number of cycles access was blocked
system.cpu.icache.avg_blocked_cycles::no_mshrs    35.600000                       # average number of cycles each access was blocked
system.cpu.icache.avg_blocked_cycles::no_targets          nan                       # average number of cycles each access was blocked
system.cpu.icache.ReadReq_mshr_hits::.cpu.inst          362                       # number of ReadReq MSHR hits
system.cpu.icache.ReadReq_mshr_hits::total          362                       # number of ReadReq MSHR hits
system.cpu.icache.demand_mshr_hits::.cpu.inst          362                       # number of demand (read+write) MSHR hits
system.cpu.icache.demand_mshr_hits::total          362                       # number of demand (read+write) MSHR hits
system.cpu.icache.overall_mshr_hits::.cpu.inst          362                       # number of overall MSHR hits
system.cpu.icache.overall_mshr_hits::total          362                       # number of overall MSHR hits
system.cpu.icache.ReadReq_mshr_misses::.cpu.inst         1361                       # number of ReadReq MSHR misses
system.cpu.icache.ReadReq_mshr_misses::total         1361                       # number of ReadReq MSHR misses
system.cpu.icache.demand_mshr_misses::.cpu.inst         1361                       # number of demand (read+write) MSHR misses
system.cpu.icache.demand_mshr_misses::total         1361                       # number of demand (read+write) MSHR misses
system.cpu.icache.overall_mshr_misses::.cpu.inst         1361                       # number of overall MSHR misses
system.cpu.icache.overall_mshr_misses::total         1361                       # number of overall MSHR misses
system.cpu.icache.ReadReq_mshr_miss_latency::.cpu.inst     88762999                       # number of ReadReq MSHR miss cycles
system.cpu.icache.ReadReq_mshr_miss_latency::total     88762999                       # number of ReadReq MSHR miss cycles
system.cpu.icache.demand_mshr_miss_latency::.cpu.inst     88762999                       # number of demand (read+write) MSHR miss cycles
system.cpu.icache.demand_mshr_miss_latency::total     88762999                       # number of demand (read+write) MSHR miss cycles
system.cpu.icache.overall_mshr_miss_latency::.cpu.inst     88762999                       # number of overall MSHR miss cycles
system.cpu.icache.overall_mshr_miss_latency::total     88762999                       # number of overall MSHR miss cycles
system.cpu.icache.ReadReq_mshr_miss_rate::.cpu.inst     0.007966                       # mshr miss rate for ReadReq accesses
system.cpu.icache.ReadReq_mshr_miss_rate::total     0.007966                       # mshr miss rate for ReadReq accesses
system.cpu.icache.demand_mshr_miss_rate::.cpu.inst     0.007966                       # mshr miss rate for demand accesses
system.cpu.icache.demand_mshr_miss_rate::total     0.007966                       # mshr miss rate for demand accesses
system.cpu.icache.overall_mshr_miss_rate::.cpu.inst     0.007966                       # mshr miss rate for overall accesses
system.cpu.icache.overall_mshr_miss_rate::total     0.007966                       # mshr miss rate for overall accesses
system.cpu.icache.ReadReq_avg_mshr_miss_latency::.cpu.inst 65218.955915                       # average ReadReq mshr miss latency
system.cpu.icache.ReadReq_avg_mshr_miss_latency::total 65218.955915                       # average ReadReq mshr miss latency
system.cpu.icache.demand_avg_mshr_miss_latency::.cpu.inst 65218.955915                       # average overall mshr miss latency
system.cpu.icache.demand_avg_mshr_miss_latency::total 65218.955915                       # average overall mshr miss latency
system.cpu.icache.overall_avg_mshr_miss_latency::.cpu.inst 65218.955915                       # average overall mshr miss latency
system.cpu.icache.overall_avg_mshr_miss_latency::total 65218.955915                       # average overall mshr miss latency
system.cpu.icache.replacements                   1105                       # number of replacements
system.membus.snoop_filter.tot_requests       1570762                       # Total number of requests made to the snoop filter.
system.membus.snoop_filter.hit_single_requests       785125                       # Number of requests hitting in the snoop filter with a single holder of the requested data.
system.membus.snoop_filter.hit_multi_requests           16                       # Number of requests hitting in the snoop filter with multiple (>1) holders of the requested data.
system.membus.snoop_filter.tot_snoops               0                       # Total number of snoops made to the snoop filter.
system.membus.snoop_filter.hit_single_snoops            0                       # Number of snoops hitting in the snoop filter with a single holder of the requested data.
system.membus.snoop_filter.hit_multi_snoops            0                       # Number of snoops hitting in the snoop filter with multiple (>1) holders of the requested data.
system.membus.pwrStateResidencyTicks::UNDEFINED  59621640000                       # Cumulative time (in ticks) in various power states
system.membus.trans_dist::ReadResp              19872                       # Transaction distribution
system.membus.trans_dist::WritebackDirty       765843                       # Transaction distribution
system.membus.trans_dist::CleanEvict            19282                       # Transaction distribution
system.membus.trans_dist::ReadExReq            765765                       # Transaction distribution
system.membus.trans_dist::ReadExResp           765765                       # Transaction distribution
system.membus.trans_dist::ReadSharedReq         19872                       # Transaction distribution
system.membus.pkt_count_system.cpu.icache.mem_side::system.mem_ctrl.port         3827                       # Packet count per connected master and slave (bytes)
system.membus.pkt_count_system.cpu.icache.mem_side::total         3827                       # Packet count per connected master and slave (bytes)
system.membus.pkt_count_system.cpu.dcache.mem_side::system.mem_ctrl.port      2352572                       # Packet count per connected master and slave (bytes)
system.membus.pkt_count_system.cpu.dcache.mem_side::total      2352572                       # Packet count per connected master and slave (bytes)
system.membus.pkt_count::total                2356399                       # Packet count per connected master and slave (bytes)
system.membus.pkt_size_system.cpu.icache.mem_side::system.mem_ctrl.port        87104                       # Cumulative packet size per connected master and slave (bytes)
system.membus.pkt_size_system.cpu.icache.mem_side::total        87104                       # Cumulative packet size per connected master and slave (bytes)
system.membus.pkt_size_system.cpu.dcache.mem_side::system.mem_ctrl.port     99207616                       # Cumulative packet size per connected master and slave (bytes)
system.membus.pkt_size_system.cpu.dcache.mem_side::total     99207616                       # Cumulative packet size per connected master and slave (bytes)
system.membus.pkt_size::total                99294720                       # Cumulative packet size per connected master and slave (bytes)
system.membus.snoops                                0                       # Total snoops (count)
system.membus.snoopTraffic                          0                       # Total snoop traffic (bytes)
system.membus.snoop_fanout::samples            785637                       # Request fanout histogram
system.membus.snoop_fanout::mean             0.000020                       # Request fanout histogram
system.membus.snoop_fanout::stdev            0.004513                       # Request fanout histogram
system.membus.snoop_fanout::underflows              0      0.00%      0.00% # Request fanout histogram
system.membus.snoop_fanout::0                  785621    100.00%    100.00% # Request fanout histogram
system.membus.snoop_fanout::1                      16      0.00%    100.00% # Request fanout histogram
system.membus.snoop_fanout::2                       0      0.00%    100.00% # Request fanout histogram
system.membus.snoop_fanout::overflows               0      0.00%    100.00% # Request fanout histogram
system.membus.snoop_fanout::min_value               0                       # Request fanout histogram
system.membus.snoop_fanout::max_value               1                       # Request fanout histogram
system.membus.snoop_fanout::total              785637                       # Request fanout histogram
system.membus.reqLayer2.occupancy          4634134000                       # Layer occupancy (ticks)
system.membus.reqLayer2.utilization               7.8                       # Layer utilization (%)
system.membus.respLayer0.occupancy            7215500                       # Layer occupancy (ticks)
system.membus.respLayer0.utilization              0.0                       # Layer utilization (%)
system.membus.respLayer1.occupancy         4137042748                       # Layer occupancy (ticks)
system.membus.respLayer1.utilization              6.9                       # Layer utilization (%)

---------- End Simulation Statistics   ----------
