
---------- Begin Simulation Statistics ----------
sim_seconds                                  0.007294                       # Number of seconds simulated
sim_ticks                                  7294317000                       # Number of ticks simulated
final_tick                                 7294317000                       # Number of ticks from beginning of simulation (restored from checkpoints and never reset)
sim_freq                                 1000000000000                       # Frequency of simulated ticks
host_inst_rate                                  93451                       # Simulator instruction rate (inst/s)
host_op_rate                                   144076                       # Simulator op (including micro ops) rate (op/s)
host_tick_rate                               47339172                       # Simulator tick rate (ticks/s)
host_mem_usage                                 669428                       # Number of bytes of host memory used
host_seconds                                   154.09                       # Real time elapsed on the host
sim_insts                                    14399449                       # Number of instructions simulated
sim_ops                                      22200084                       # Number of ops (including micro ops) simulated
system.voltage_domain.voltage                       1                       # Voltage in Volts
system.clk_domain.clock                          1000                       # Clock period in ticks
system.mem_ctrls.pwrStateResidencyTicks::UNDEFINED   7294317000                       # Cumulative time (in ticks) in various power states
system.mem_ctrls.bytes_read::.cpu.inst          51584                       # Number of bytes read from this memory
system.mem_ctrls.bytes_read::.cpu.data         291648                       # Number of bytes read from this memory
system.mem_ctrls.bytes_read::total             343232                       # Number of bytes read from this memory
system.mem_ctrls.bytes_inst_read::.cpu.inst        51584                       # Number of instructions bytes read from this memory
system.mem_ctrls.bytes_inst_read::total         51584                       # Number of instructions bytes read from this memory
system.mem_ctrls.num_reads::.cpu.inst             806                       # Number of read requests responded to by this memory
system.mem_ctrls.num_reads::.cpu.data            4557                       # Number of read requests responded to by this memory
system.mem_ctrls.num_reads::total                5363                       # Number of read requests responded to by this memory
system.mem_ctrls.bw_read::.cpu.inst           7071807                       # Total read bandwidth from this memory (bytes/s)
system.mem_ctrls.bw_read::.cpu.data          39982907                       # Total read bandwidth from this memory (bytes/s)
system.mem_ctrls.bw_read::total              47054714                       # Total read bandwidth from this memory (bytes/s)
system.mem_ctrls.bw_inst_read::.cpu.inst      7071807                       # Instruction read bandwidth from this memory (bytes/s)
system.mem_ctrls.bw_inst_read::total          7071807                       # Instruction read bandwidth from this memory (bytes/s)
system.mem_ctrls.bw_total::.cpu.inst          7071807                       # Total bandwidth to/from this memory (bytes/s)
system.mem_ctrls.bw_total::.cpu.data         39982907                       # Total bandwidth to/from this memory (bytes/s)
system.mem_ctrls.bw_total::total             47054714                       # Total bandwidth to/from this memory (bytes/s)
system.mem_ctrls.avgPriority_.cpu.inst::samples       806.00                       # Average QoS priority value for accepted requests
system.mem_ctrls.avgPriority_.cpu.data::samples      4557.00                       # Average QoS priority value for accepted requests
system.mem_ctrls.priorityMinLatency      0.000000018750                       # per QoS priority minimum request to response latency (s)
system.mem_ctrls.priorityMaxLatency      0.000001117250                       # per QoS priority maximum request to response latency (s)
system.mem_ctrls.numReadWriteTurnArounds            0                       # Number of turnarounds from READ to WRITE
system.mem_ctrls.numWriteReadTurnArounds            0                       # Number of turnarounds from WRITE to READ
system.mem_ctrls.numStayReadState               11041                       # Number of times bus staying in READ state
system.mem_ctrls.numStayWriteState                  0                       # Number of times bus staying in WRITE state
system.mem_ctrls.readReqs                        5363                       # Number of read requests accepted
system.mem_ctrls.writeReqs                          0                       # Number of write requests accepted
system.mem_ctrls.readBursts                      5363                       # Number of DRAM read bursts, including those serviced by the write queue
system.mem_ctrls.writeBursts                        0                       # Number of DRAM write bursts, including those merged in the write queue
system.mem_ctrls.bytesReadDRAM                 343232                       # Total number of bytes read from DRAM
system.mem_ctrls.bytesReadWrQ                       0                       # Total number of bytes read from write queue
system.mem_ctrls.bytesWritten                       0                       # Total number of bytes written to DRAM
system.mem_ctrls.bytesReadSys                  343232                       # Total read bytes from the system interface side
system.mem_ctrls.bytesWrittenSys                    0                       # Total written bytes from the system interface side
system.mem_ctrls.servicedByWrQ                      0                       # Number of DRAM read bursts serviced by the write queue
system.mem_ctrls.mergedWrBursts                     0                       # Number of DRAM write bursts merged with an existing one
system.mem_ctrls.neitherReadNorWriteReqs            0                       # Number of requests that are neither read nor write
system.mem_ctrls.perBankRdBursts::0               342                       # Per bank write bursts
system.mem_ctrls.perBankRdBursts::1               451                       # Per bank write bursts
system.mem_ctrls.perBankRdBursts::2               456                       # Per bank write bursts
system.mem_ctrls.perBankRdBursts::3               408                       # Per bank write bursts
system.mem_ctrls.perBankRdBursts::4               388                       # Per bank write bursts
system.mem_ctrls.perBankRdBursts::5               360                       # Per bank write bursts
system.mem_ctrls.perBankRdBursts::6               329                       # Per bank write bursts
system.mem_ctrls.perBankRdBursts::7               324                       # Per bank write bursts
system.mem_ctrls.perBankRdBursts::8               295                       # Per bank write bursts
system.mem_ctrls.perBankRdBursts::9               226                       # Per bank write bursts
system.mem_ctrls.perBankRdBursts::10              339                       # Per bank write bursts
system.mem_ctrls.perBankRdBursts::11              289                       # Per bank write bursts
system.mem_ctrls.perBankRdBursts::12              282                       # Per bank write bursts
system.mem_ctrls.perBankRdBursts::13              294                       # Per bank write bursts
system.mem_ctrls.perBankRdBursts::14              333                       # Per bank write bursts
system.mem_ctrls.perBankRdBursts::15              247                       # Per bank write bursts
system.mem_ctrls.perBankWrBursts::0                 0                       # Per bank write bursts
system.mem_ctrls.perBankWrBursts::1                 0                       # Per bank write bursts
system.mem_ctrls.perBankWrBursts::2                 0                       # Per bank write bursts
system.mem_ctrls.perBankWrBursts::3                 0                       # Per bank write bursts
system.mem_ctrls.perBankWrBursts::4                 0                       # Per bank write bursts
system.mem_ctrls.perBankWrBursts::5                 0                       # Per bank write bursts
system.mem_ctrls.perBankWrBursts::6                 0                       # Per bank write bursts
system.mem_ctrls.perBankWrBursts::7                 0                       # Per bank write bursts
system.mem_ctrls.perBankWrBursts::8                 0                       # Per bank write bursts
system.mem_ctrls.perBankWrBursts::9                 0                       # Per bank write bursts
system.mem_ctrls.perBankWrBursts::10                0                       # Per bank write bursts
system.mem_ctrls.perBankWrBursts::11                0                       # Per bank write bursts
system.mem_ctrls.perBankWrBursts::12                0                       # Per bank write bursts
system.mem_ctrls.perBankWrBursts::13                0                       # Per bank write bursts
system.mem_ctrls.perBankWrBursts::14                0                       # Per bank write bursts
system.mem_ctrls.perBankWrBursts::15                0                       # Per bank write bursts
system.mem_ctrls.numRdRetry                         0                       # Number of times read queue was full causing retry
system.mem_ctrls.numWrRetry                         0                       # Number of times write queue was full causing retry
system.mem_ctrls.totGap                    7294205000                       # Total gap between requests
system.mem_ctrls.readPktSize::0                     0                       # Read request sizes (log2)
system.mem_ctrls.readPktSize::1                     0                       # Read request sizes (log2)
system.mem_ctrls.readPktSize::2                     0                       # Read request sizes (log2)
system.mem_ctrls.readPktSize::3                     0                       # Read request sizes (log2)
system.mem_ctrls.readPktSize::4                     0                       # Read request sizes (log2)
system.mem_ctrls.readPktSize::5                     0                       # Read request sizes (log2)
system.mem_ctrls.readPktSize::6                  5363                       # Read request sizes (log2)
system.mem_ctrls.writePktSize::0                    0                       # Write request sizes (log2)
system.mem_ctrls.writePktSize::1                    0                       # Write request sizes (log2)
system.mem_ctrls.writePktSize::2                    0                       # Write request sizes (log2)
system.mem_ctrls.writePktSize::3                    0                       # Write request sizes (log2)
system.mem_ctrls.writePktSize::4                    0                       # Write request sizes (log2)
system.mem_ctrls.writePktSize::5                    0                       # Write request sizes (log2)
system.mem_ctrls.writePktSize::6                    0                       # Write request sizes (log2)
system.mem_ctrls.rdQLenPdf::0                    3820                       # What read queue length does an incoming req see
system.mem_ctrls.rdQLenPdf::1                    1252                       # What read queue length does an incoming req see
system.mem_ctrls.rdQLenPdf::2                     254                       # What read queue length does an incoming req see
system.mem_ctrls.rdQLenPdf::3                      33                       # What read queue length does an incoming req see
system.mem_ctrls.rdQLenPdf::4                       4                       # What read queue length does an incoming req see
system.mem_ctrls.rdQLenPdf::5                       0                       # What read queue length does an incoming req see
system.mem_ctrls.rdQLenPdf::6                       0                       # What read queue length does an incoming req see
system.mem_ctrls.rdQLenPdf::7                       0                       # What read queue length does an incoming req see
system.mem_ctrls.rdQLenPdf::8                       0                       # What read queue length does an incoming req see
system.mem_ctrls.rdQLenPdf::9                       0                       # What read queue length does an incoming req see
system.mem_ctrls.rdQLenPdf::10                      0                       # What read queue length does an incoming req see
system.mem_ctrls.rdQLenPdf::11                      0                       # What read queue length does an incoming req see
system.mem_ctrls.rdQLenPdf::12                      0                       # What read queue length does an incoming req see
system.mem_ctrls.rdQLenPdf::13                      0                       # What read queue length does an incoming req see
system.mem_ctrls.rdQLenPdf::14                      0                       # What read queue length does an incoming req see
system.mem_ctrls.rdQLenPdf::15                      0                       # What read queue length does an incoming req see
system.mem_ctrls.rdQLenPdf::16                      0                       # What read queue length does an incoming req see
system.mem_ctrls.rdQLenPdf::17                      0                       # What read queue length does an incoming req see
system.mem_ctrls.rdQLenPdf::18                      0                       # What read queue length does an incoming req see
system.mem_ctrls.rdQLenPdf::19                      0                       # What read queue length does an incoming req see
system.mem_ctrls.rdQLenPdf::20                      0                       # What read queue length does an incoming req see
system.mem_ctrls.rdQLenPdf::21                      0                       # What read queue length does an incoming req see
system.mem_ctrls.rdQLenPdf::22                      0                       # What read queue length does an incoming req see
system.mem_ctrls.rdQLenPdf::23                      0                       # What read queue length does an incoming req see
system.mem_ctrls.rdQLenPdf::24                      0                       # What read queue length does an incoming req see
system.mem_ctrls.rdQLenPdf::25                      0                       # What read queue length does an incoming req see
system.mem_ctrls.rdQLenPdf::26                      0                       # What read queue length does an incoming req see
system.mem_ctrls.rdQLenPdf::27                      0                       # What read queue length does an incoming req see
system.mem_ctrls.rdQLenPdf::28                      0                       # What read queue length does an incoming req see
system.mem_ctrls.rdQLenPdf::29                      0                       # What read queue length does an incoming req see
system.mem_ctrls.rdQLenPdf::30                      0                       # What read queue length does an incoming req see
system.mem_ctrls.rdQLenPdf::31                      0                       # What read queue length does an incoming req see
system.mem_ctrls.wrQLenPdf::0                       0                       # What write queue length does an incoming req see
system.mem_ctrls.wrQLenPdf::1                       0                       # What write queue length does an incoming req see
system.mem_ctrls.wrQLenPdf::2                       0                       # What write queue length does an incoming req see
system.mem_ctrls.wrQLenPdf::3                       0                       # What write queue length does an incoming req see
system.mem_ctrls.wrQLenPdf::4                       0                       # What write queue length does an incoming req see
system.mem_ctrls.wrQLenPdf::5                       0                       # What write queue length does an incoming req see
system.mem_ctrls.wrQLenPdf::6                       0                       # What write queue length does an incoming req see
system.mem_ctrls.wrQLenPdf::7                       0                       # What write queue length does an incoming req see
system.mem_ctrls.wrQLenPdf::8                       0                       # What write queue length does an incoming req see
system.mem_ctrls.wrQLenPdf::9                       0                       # What write queue length does an incoming req see
system.mem_ctrls.wrQLenPdf::10                      0                       # What write queue length does an incoming req see
system.mem_ctrls.wrQLenPdf::11                      0                       # What write queue length does an incoming req see
system.mem_ctrls.wrQLenPdf::12                      0                       # What write queue length does an incoming req see
system.mem_ctrls.wrQLenPdf::13                      0                       # What write queue length does an incoming req see
system.mem_ctrls.wrQLenPdf::14                      0                       # What write queue length does an incoming req see
system.mem_ctrls.wrQLenPdf::15                      0                       # What write queue length does an incoming req see
system.mem_ctrls.wrQLenPdf::16                      0                       # What write queue length does an incoming req see
system.mem_ctrls.wrQLenPdf::17                      0                       # What write queue length does an incoming req see
system.mem_ctrls.wrQLenPdf::18                      0                       # What write queue length does an incoming req see
system.mem_ctrls.wrQLenPdf::19                      0                       # What write queue length does an incoming req see
system.mem_ctrls.wrQLenPdf::20                      0                       # What write queue length does an incoming req see
system.mem_ctrls.wrQLenPdf::21                      0                       # What write queue length does an incoming req see
system.mem_ctrls.wrQLenPdf::22                      0                       # What write queue length does an incoming req see
system.mem_ctrls.wrQLenPdf::23                      0                       # What write queue length does an incoming req see
system.mem_ctrls.wrQLenPdf::24                      0                       # What write queue length does an incoming req see
system.mem_ctrls.wrQLenPdf::25                      0                       # What write queue length does an incoming req see
system.mem_ctrls.wrQLenPdf::26                      0                       # What write queue length does an incoming req see
system.mem_ctrls.wrQLenPdf::27                      0                       # What write queue length does an incoming req see
system.mem_ctrls.wrQLenPdf::28                      0                       # What write queue length does an incoming req see
system.mem_ctrls.wrQLenPdf::29                      0                       # What write queue length does an incoming req see
system.mem_ctrls.wrQLenPdf::30                      0                       # What write queue length does an incoming req see
system.mem_ctrls.wrQLenPdf::31                      0                       # What write queue length does an incoming req see
system.mem_ctrls.wrQLenPdf::32                      0                       # What write queue length does an incoming req see
system.mem_ctrls.wrQLenPdf::33                      0                       # What write queue length does an incoming req see
system.mem_ctrls.wrQLenPdf::34                      0                       # What write queue length does an incoming req see
system.mem_ctrls.wrQLenPdf::35                      0                       # What write queue length does an incoming req see
system.mem_ctrls.wrQLenPdf::36                      0                       # What write queue length does an incoming req see
system.mem_ctrls.wrQLenPdf::37                      0                       # What write queue length does an incoming req see
system.mem_ctrls.wrQLenPdf::38                      0                       # What write queue length does an incoming req see
system.mem_ctrls.wrQLenPdf::39                      0                       # What write queue length does an incoming req see
system.mem_ctrls.wrQLenPdf::40                      0                       # What write queue length does an incoming req see
system.mem_ctrls.wrQLenPdf::41                      0                       # What write queue length does an incoming req see
system.mem_ctrls.wrQLenPdf::42                      0                       # What write queue length does an incoming req see
system.mem_ctrls.wrQLenPdf::43                      0                       # What write queue length does an incoming req see
system.mem_ctrls.wrQLenPdf::44                      0                       # What write queue length does an incoming req see
system.mem_ctrls.wrQLenPdf::45                      0                       # What write queue length does an incoming req see
system.mem_ctrls.wrQLenPdf::46                      0                       # What write queue length does an incoming req see
system.mem_ctrls.wrQLenPdf::47                      0                       # What write queue length does an incoming req see
system.mem_ctrls.wrQLenPdf::48                      0                       # What write queue length does an incoming req see
system.mem_ctrls.wrQLenPdf::49                      0                       # What write queue length does an incoming req see
system.mem_ctrls.wrQLenPdf::50                      0                       # What write queue length does an incoming req see
system.mem_ctrls.wrQLenPdf::51                      0                       # What write queue length does an incoming req see
system.mem_ctrls.wrQLenPdf::52                      0                       # What write queue length does an incoming req see
system.mem_ctrls.wrQLenPdf::53                      0                       # What write queue length does an incoming req see
system.mem_ctrls.wrQLenPdf::54                      0                       # What write queue length does an incoming req see
system.mem_ctrls.wrQLenPdf::55                      0                       # What write queue length does an incoming req see
system.mem_ctrls.wrQLenPdf::56                      0                       # What write queue length does an incoming req see
system.mem_ctrls.wrQLenPdf::57                      0                       # What write queue length does an incoming req see
system.mem_ctrls.wrQLenPdf::58                      0                       # What write queue length does an incoming req see
system.mem_ctrls.wrQLenPdf::59                      0                       # What write queue length does an incoming req see
system.mem_ctrls.wrQLenPdf::60                      0                       # What write queue length does an incoming req see
system.mem_ctrls.wrQLenPdf::61                      0                       # What write queue length does an incoming req see
system.mem_ctrls.wrQLenPdf::62                      0                       # What write queue length does an incoming req see
system.mem_ctrls.wrQLenPdf::63                      0                       # What write queue length does an incoming req see
system.mem_ctrls.bytesPerActivate::samples          756                       # Bytes accessed per row activation
system.mem_ctrls.bytesPerActivate::mean    452.402116                       # Bytes accessed per row activation
system.mem_ctrls.bytesPerActivate::gmean   291.461429                       # Bytes accessed per row activation
system.mem_ctrls.bytesPerActivate::stdev   355.051325                       # Bytes accessed per row activation
system.mem_ctrls.bytesPerActivate::0-127          180     23.81%     23.81% # Bytes accessed per row activation
system.mem_ctrls.bytesPerActivate::128-255          118     15.61%     39.42% # Bytes accessed per row activation
system.mem_ctrls.bytesPerActivate::256-383           55      7.28%     46.69% # Bytes accessed per row activation
system.mem_ctrls.bytesPerActivate::384-511           55      7.28%     53.97% # Bytes accessed per row activation
system.mem_ctrls.bytesPerActivate::512-639          127     16.80%     70.77% # Bytes accessed per row activation
system.mem_ctrls.bytesPerActivate::640-767           35      4.63%     75.40% # Bytes accessed per row activation
system.mem_ctrls.bytesPerActivate::768-895           23      3.04%     78.44% # Bytes accessed per row activation
system.mem_ctrls.bytesPerActivate::896-1023           28      3.70%     82.14% # Bytes accessed per row activation
system.mem_ctrls.bytesPerActivate::1024-1151          135     17.86%    100.00% # Bytes accessed per row activation
system.mem_ctrls.bytesPerActivate::total          756                       # Bytes accessed per row activation
system.mem_ctrls.masterReadBytes::.cpu.inst        51584                       # Per-master bytes read from memory
system.mem_ctrls.masterReadBytes::.cpu.data       291648                       # Per-master bytes read from memory
system.mem_ctrls.masterReadRate::.cpu.inst 7071806.722959805280                       # Per-master bytes read from memory rate (Bytes/sec)
system.mem_ctrls.masterReadRate::.cpu.data 39982907.241349667311                       # Per-master bytes read from memory rate (Bytes/sec)
system.mem_ctrls.masterReadAccesses::.cpu.inst          806                       # Per-master read serviced memory accesses
system.mem_ctrls.masterReadAccesses::.cpu.data         4557                       # Per-master read serviced memory accesses
system.mem_ctrls.masterReadTotalLat::.cpu.inst     28606750                       # Per-master read total memory access latency
system.mem_ctrls.masterReadTotalLat::.cpu.data    256533500                       # Per-master read total memory access latency
system.mem_ctrls.masterReadAvgLat::.cpu.inst     35492.25                       # Per-master read average memory access latency
system.mem_ctrls.masterReadAvgLat::.cpu.data     56294.38                       # Per-master read average memory access latency
system.mem_ctrls.totQLat                    184584000                       # Total ticks spent queuing
system.mem_ctrls.totMemAccLat               285140250                       # Total ticks spent from burst creation until serviced by the DRAM
system.mem_ctrls.totBusLat                   26815000                       # Total ticks spent in databus transfers
system.mem_ctrls.avgQLat                     34418.05                       # Average queueing delay per DRAM burst
system.mem_ctrls.avgBusLat                    5000.00                       # Average bus latency per DRAM burst
system.mem_ctrls.avgMemAccLat                53168.05                       # Average memory access latency per DRAM burst
system.mem_ctrls.avgRdBW                        47.05                       # Average DRAM read bandwidth in MiByte/s
system.mem_ctrls.avgWrBW                         0.00                       # Average achieved write bandwidth in MiByte/s
system.mem_ctrls.avgRdBWSys                     47.05                       # Average system read bandwidth in MiByte/s
system.mem_ctrls.avgWrBWSys                      0.00                       # Average system write bandwidth in MiByte/s
system.mem_ctrls.peakBW                      12800.00                       # Theoretical peak bandwidth in MiByte/s
system.mem_ctrls.busUtil                         0.37                       # Data bus utilization in percentage
system.mem_ctrls.busUtilRead                     0.37                       # Data bus utilization in percentage for reads
system.mem_ctrls.busUtilWrite                    0.00                       # Data bus utilization in percentage for writes
system.mem_ctrls.avgRdQLen                       1.81                       # Average read queue length when enqueuing
system.mem_ctrls.avgWrQLen                       0.00                       # Average write queue length when enqueuing
system.mem_ctrls.readRowHits                     4597                       # Number of row buffer hits during reads
system.mem_ctrls.writeRowHits                       0                       # Number of row buffer hits during writes
system.mem_ctrls.readRowHitRate                 85.72                       # Row buffer hit rate for reads
system.mem_ctrls.writeRowHitRate                  nan                       # Row buffer hit rate for writes
system.mem_ctrls.avgGap                    1360097.89                       # Average gap between requests
system.mem_ctrls.pageHitRate                    85.72                       # Row buffer hit rate, read and write combined
system.mem_ctrls_0.actEnergy                  2884560                       # Energy for activate commands per rank (pJ)
system.mem_ctrls_0.preEnergy                  1521795                       # Energy for precharge commands per rank (pJ)
system.mem_ctrls_0.readEnergy                21834120                       # Energy for read commands per rank (pJ)
system.mem_ctrls_0.writeEnergy                      0                       # Energy for write commands per rank (pJ)
system.mem_ctrls_0.refreshEnergy         146284320.000000                       # Energy for refresh commands per rank (pJ)
system.mem_ctrls_0.actBackEnergy             64189980                       # Energy for active background per rank (pJ)
system.mem_ctrls_0.preBackEnergy             13534080                       # Energy for precharge background per rank (pJ)
system.mem_ctrls_0.actPowerDownEnergy       462345240                       # Energy for active power-down per rank (pJ)
system.mem_ctrls_0.prePowerDownEnergy       266256960                       # Energy for precharge power-down per rank (pJ)
system.mem_ctrls_0.selfRefreshEnergy       1348896840                       # Energy for self refresh per rank (pJ)
system.mem_ctrls_0.totalEnergy             2327747895                       # Total energy per rank (pJ)
system.mem_ctrls_0.averagePower            319.118006                       # Core power per rank (mW)
system.mem_ctrls_0.totalIdleTime           7118081750                       # Total Idle time Per DRAM Rank
system.mem_ctrls_0.memoryStateTime::IDLE     29384000                       # Time in different power states
system.mem_ctrls_0.memoryStateTime::REF      61880000                       # Time in different power states
system.mem_ctrls_0.memoryStateTime::SREF   5411013500                       # Time in different power states
system.mem_ctrls_0.memoryStateTime::PRE_PDN    693379750                       # Time in different power states
system.mem_ctrls_0.memoryStateTime::ACT      84763750                       # Time in different power states
system.mem_ctrls_0.memoryStateTime::ACT_PDN   1013896000                       # Time in different power states
system.mem_ctrls_1.actEnergy                  2584680                       # Energy for activate commands per rank (pJ)
system.mem_ctrls_1.preEnergy                  1347225                       # Energy for precharge commands per rank (pJ)
system.mem_ctrls_1.readEnergy                16457700                       # Energy for read commands per rank (pJ)
system.mem_ctrls_1.writeEnergy                      0                       # Energy for write commands per rank (pJ)
system.mem_ctrls_1.refreshEnergy         67610400.000000                       # Energy for refresh commands per rank (pJ)
system.mem_ctrls_1.actBackEnergy             42326490                       # Energy for active background per rank (pJ)
system.mem_ctrls_1.preBackEnergy              4441440                       # Energy for precharge background per rank (pJ)
system.mem_ctrls_1.actPowerDownEnergy       246245130                       # Energy for active power-down per rank (pJ)
system.mem_ctrls_1.prePowerDownEnergy        86487840                       # Energy for precharge power-down per rank (pJ)
system.mem_ctrls_1.selfRefreshEnergy       1557940560                       # Energy for self refresh per rank (pJ)
system.mem_ctrls_1.totalEnergy             2025441465                       # Total energy per rank (pJ)
system.mem_ctrls_1.averagePower            277.673902                       # Core power per rank (mW)
system.mem_ctrls_1.totalIdleTime           7189858250                       # Total Idle time Per DRAM Rank
system.mem_ctrls_1.memoryStateTime::IDLE      8621000                       # Time in different power states
system.mem_ctrls_1.memoryStateTime::REF      28600000                       # Time in different power states
system.mem_ctrls_1.memoryStateTime::SREF   6424690500                       # Time in different power states
system.mem_ctrls_1.memoryStateTime::PRE_PDN    225228250                       # Time in different power states
system.mem_ctrls_1.memoryStateTime::ACT      67173500                       # Time in different power states
system.mem_ctrls_1.memoryStateTime::ACT_PDN    540003750                       # Time in different power states
system.pwrStateResidencyTicks::UNDEFINED   7294317000                       # Cumulative time (in ticks) in various power states
system.cpu.branchPred.lookups                  325552                       # Number of BP lookups
system.cpu.branchPred.condPredicted            325552                       # Number of conditional branches predicted
system.cpu.branchPred.condIncorrect              2995                       # Number of conditional branches incorrect
system.cpu.branchPred.BTBLookups               289835                       # Number of BTB lookups
system.cpu.branchPred.BTBHits                       0                       # Number of BTB hits
system.cpu.branchPred.BTBCorrect                    0                       # Number of correct BTB predictions (this stat may not work properly.
system.cpu.branchPred.BTBHitPct              0.000000                       # BTB Hit Percentage
system.cpu.branchPred.usedRAS                    1389                       # Number of times the RAS was used to get a target.
system.cpu.branchPred.RASInCorrect                340                       # Number of incorrect RAS predictions.
system.cpu.branchPred.indirectLookups          289835                       # Number of indirect predictor lookups.
system.cpu.branchPred.indirectHits             270518                       # Number of indirect target hits.
system.cpu.branchPred.indirectMisses            19317                       # Number of indirect misses.
system.cpu.branchPredindirectMispredicted         1798                       # Number of mispredicted indirect branches.
system.cpu_voltage_domain.voltage                   1                       # Voltage in Volts
system.cpu_clk_domain.clock                      1000                       # Clock period in ticks
system.cpu.dtb.walker.pwrStateResidencyTicks::UNDEFINED   7294317000                       # Cumulative time (in ticks) in various power states
system.cpu.dtb.rdAccesses                     4928438                       # TLB accesses on read requests
system.cpu.dtb.wrAccesses                     2110563                       # TLB accesses on write requests
system.cpu.dtb.rdMisses                           514                       # TLB misses on read requests
system.cpu.dtb.wrMisses                            84                       # TLB misses on write requests
system.cpu.apic_clk_domain.clock                16000                       # Clock period in ticks
system.cpu.interrupts.pwrStateResidencyTicks::UNDEFINED   7294317000                       # Cumulative time (in ticks) in various power states
system.cpu.itb.walker.pwrStateResidencyTicks::UNDEFINED   7294317000                       # Cumulative time (in ticks) in various power states
system.cpu.itb.rdAccesses                           0                       # TLB accesses on read requests
system.cpu.itb.wrAccesses                     1625565                       # TLB accesses on write requests
system.cpu.itb.rdMisses                             0                       # TLB misses on read requests
system.cpu.itb.wrMisses                           118                       # TLB misses on write requests
system.cpu.workload.numSyscalls                    27                       # Number of system calls
system.cpu.pwrStateResidencyTicks::ON      7294317000                       # Cumulative time (in ticks) in various power states
system.cpu.numCycles                          7294318                       # number of cpu cycles simulated
system.cpu.numWorkItemsStarted                      0                       # number of work items this cpu started
system.cpu.numWorkItemsCompleted                    0                       # number of work items this cpu completed
system.cpu.fetch.icacheStallCycles            1646616                       # Number of cycles fetch is stalled on an Icache miss
system.cpu.fetch.Insts                       14497501                       # Number of instructions fetch has processed
system.cpu.fetch.Branches                      325552                       # Number of branches that fetch encountered
system.cpu.fetch.predictedBranches             271907                       # Number of branches that fetch has predicted taken
system.cpu.fetch.Cycles                       5609032                       # Number of cycles fetch has run and was not squashing or blocked
system.cpu.fetch.SquashCycles                    6352                       # Number of cycles fetch has spent squashing
system.cpu.fetch.TlbCycles                        111                       # Number of cycles fetch has spent waiting for tlb
system.cpu.fetch.MiscStallCycles                   22                       # Number of cycles fetch has spent waiting on interrupts, or bad addresses, or out of MSHRs
system.cpu.fetch.PendingTrapStallCycles           332                       # Number of stall cycles due to pending traps
system.cpu.fetch.PendingQuiesceStallCycles           14                       # Number of stall cycles due to pending quiesce instructions
system.cpu.fetch.IcacheWaitRetryStallCycles           15                       # Number of stall cycles due to full MSHR
system.cpu.fetch.CacheLines                   1625518                       # Number of cache lines fetched
system.cpu.fetch.IcacheSquashes                  1142                       # Number of outstanding Icache misses that were squashed
system.cpu.fetch.rateDist::samples            7259318                       # Number of instructions fetched each cycle (Total)
system.cpu.fetch.rateDist::mean              3.082164                       # Number of instructions fetched each cycle (Total)
system.cpu.fetch.rateDist::stdev             3.550739                       # Number of instructions fetched each cycle (Total)
system.cpu.fetch.rateDist::underflows               0      0.00%      0.00% # Number of instructions fetched each cycle (Total)
system.cpu.fetch.rateDist::0                  3680522     50.70%     50.70% # Number of instructions fetched each cycle (Total)
system.cpu.fetch.rateDist::1                   366550      5.05%     55.75% # Number of instructions fetched each cycle (Total)
system.cpu.fetch.rateDist::2                    81367      1.12%     56.87% # Number of instructions fetched each cycle (Total)
system.cpu.fetch.rateDist::3                   165410      2.28%     59.15% # Number of instructions fetched each cycle (Total)
system.cpu.fetch.rateDist::4                   232654      3.20%     62.35% # Number of instructions fetched each cycle (Total)
system.cpu.fetch.rateDist::5                   126822      1.75%     64.10% # Number of instructions fetched each cycle (Total)
system.cpu.fetch.rateDist::6                   292278      4.03%     68.13% # Number of instructions fetched each cycle (Total)
system.cpu.fetch.rateDist::7                   479216      6.60%     74.73% # Number of instructions fetched each cycle (Total)
system.cpu.fetch.rateDist::8                  1834499     25.27%    100.00% # Number of instructions fetched each cycle (Total)
system.cpu.fetch.rateDist::overflows                0      0.00%    100.00% # Number of instructions fetched each cycle (Total)
system.cpu.fetch.rateDist::min_value                0                       # Number of instructions fetched each cycle (Total)
system.cpu.fetch.rateDist::max_value                8                       # Number of instructions fetched each cycle (Total)
system.cpu.fetch.rateDist::total              7259318                       # Number of instructions fetched each cycle (Total)
system.cpu.fetch.branchRate                  0.044631                       # Number of branch fetches per cycle
system.cpu.fetch.rate                        1.987506                       # Number of inst fetches per cycle
system.cpu.decode.IdleCycles                   597788                       # Number of cycles decode is idle
system.cpu.decode.BlockedCycles               3714238                       # Number of cycles decode is blocked
system.cpu.decode.RunCycles                   1710514                       # Number of cycles decode is running
system.cpu.decode.UnblockCycles               1233602                       # Number of cycles decode is unblocking
system.cpu.decode.SquashCycles                   3176                       # Number of cycles decode is squashing
system.cpu.decode.DecodedInsts               22346920                       # Number of instructions handled by decode
system.cpu.rename.SquashCycles                   3176                       # Number of cycles rename is squashing
system.cpu.rename.IdleCycles                  1063590                       # Number of cycles rename is idle
system.cpu.rename.BlockCycles                  125223                       # Number of cycles rename is blocking
system.cpu.rename.serializeStallCycles           2003                       # count of cycles rename stalled for serializing inst
system.cpu.rename.RunCycles                   2477534                       # Number of cycles rename is running
system.cpu.rename.UnblockCycles               3587792                       # Number of cycles rename is unblocking
system.cpu.rename.RenamedInsts               22333421                       # Number of instructions processed by rename
system.cpu.rename.ROBFullEvents                   805                       # Number of times rename has blocked due to ROB full
system.cpu.rename.IQFullEvents                 320027                       # Number of times rename has blocked due to IQ full
system.cpu.rename.LQFullEvents                3115991                       # Number of times rename has blocked due to LQ full
system.cpu.rename.SQFullEvents                  16602                       # Number of times rename has blocked due to SQ full
system.cpu.rename.RenamedOperands            21663892                       # Number of destination operands rename has renamed
system.cpu.rename.RenameLookups              48510411                       # Number of register rename lookups that rename has made
system.cpu.rename.int_rename_lookups         24898473                       # Number of integer rename lookups
system.cpu.rename.fp_rename_lookups          14700934                       # Number of floating rename lookups
system.cpu.rename.CommittedMaps              21513140                       # Number of HB maps that are committed
system.cpu.rename.UndoneMaps                   150752                       # Number of HB maps that are undone due to squashing
system.cpu.rename.serializingInsts                 87                       # count of serializing insts renamed
system.cpu.rename.tempSerializingInsts             59                       # count of temporary serializing insts renamed
system.cpu.rename.skidInsts                   5765827                       # count of insts added to the skid buffer
system.cpu.memDep0.insertedLoads              4526150                       # Number of loads inserted to the mem dependence unit.
system.cpu.memDep0.insertedStores             2114141                       # Number of stores inserted to the mem dependence unit.
system.cpu.memDep0.conflictingLoads           2098401                       # Number of conflicting loads.
system.cpu.memDep0.conflictingStores          2075197                       # Number of conflicting stores.
system.cpu.iq.iqInstsAdded                   22308491                       # Number of instructions added to the IQ (excludes non-spec)
system.cpu.iq.iqNonSpecInstsAdded                  77                       # Number of non-speculative instructions added to the IQ
system.cpu.iq.iqInstsIssued                  22418417                       # Number of instructions issued
system.cpu.iq.iqSquashedInstsIssued               832                       # Number of squashed instructions issued
system.cpu.iq.iqSquashedInstsExamined          108483                       # Number of squashed instructions iterated over during squash; mainly for profiling
system.cpu.iq.iqSquashedOperandsExamined       149466                       # Number of squashed operands that are examined and possibly removed from graph
system.cpu.iq.iqSquashedNonSpecRemoved             50                       # Number of squashed non-spec instructions that were removed
system.cpu.iq.issued_per_cycle::samples       7259318                       # Number of insts issued each cycle
system.cpu.iq.issued_per_cycle::mean         3.088226                       # Number of insts issued each cycle
system.cpu.iq.issued_per_cycle::stdev        2.071695                       # Number of insts issued each cycle
system.cpu.iq.issued_per_cycle::underflows            0      0.00%      0.00% # Number of insts issued each cycle
system.cpu.iq.issued_per_cycle::0              852218     11.74%     11.74% # Number of insts issued each cycle
system.cpu.iq.issued_per_cycle::1              977812     13.47%     25.21% # Number of insts issued each cycle
system.cpu.iq.issued_per_cycle::2             1275778     17.57%     42.78% # Number of insts issued each cycle
system.cpu.iq.issued_per_cycle::3             1144128     15.76%     58.54% # Number of insts issued each cycle
system.cpu.iq.issued_per_cycle::4             1157341     15.94%     74.49% # Number of insts issued each cycle
system.cpu.iq.issued_per_cycle::5             1002125     13.80%     88.29% # Number of insts issued each cycle
system.cpu.iq.issued_per_cycle::6              393033      5.41%     93.71% # Number of insts issued each cycle
system.cpu.iq.issued_per_cycle::7              196586      2.71%     96.41% # Number of insts issued each cycle
system.cpu.iq.issued_per_cycle::8              260297      3.59%    100.00% # Number of insts issued each cycle
system.cpu.iq.issued_per_cycle::overflows            0      0.00%    100.00% # Number of insts issued each cycle
system.cpu.iq.issued_per_cycle::min_value            0                       # Number of insts issued each cycle
system.cpu.iq.issued_per_cycle::max_value            8                       # Number of insts issued each cycle
system.cpu.iq.issued_per_cycle::total         7259318                       # Number of insts issued each cycle
system.cpu.iq.fu_full::No_OpClass                   0      0.00%      0.00% # attempts to use FU when none available
system.cpu.iq.fu_full::IntAlu                   39634     56.55%     56.55% # attempts to use FU when none available
system.cpu.iq.fu_full::IntMult                      0      0.00%     56.55% # attempts to use FU when none available
system.cpu.iq.fu_full::IntDiv                       0      0.00%     56.55% # attempts to use FU when none available
system.cpu.iq.fu_full::FloatAdd                  4088      5.83%     62.38% # attempts to use FU when none available
system.cpu.iq.fu_full::FloatCmp                     0      0.00%     62.38% # attempts to use FU when none available
system.cpu.iq.fu_full::FloatCvt                     0      0.00%     62.38% # attempts to use FU when none available
system.cpu.iq.fu_full::FloatMult                    0      0.00%     62.38% # attempts to use FU when none available
system.cpu.iq.fu_full::FloatMultAcc                 0      0.00%     62.38% # attempts to use FU when none available
system.cpu.iq.fu_full::FloatDiv                     0      0.00%     62.38% # attempts to use FU when none available
system.cpu.iq.fu_full::FloatMisc                    0      0.00%     62.38% # attempts to use FU when none available
system.cpu.iq.fu_full::FloatSqrt                    0      0.00%     62.38% # attempts to use FU when none available
system.cpu.iq.fu_full::SimdAdd                      1      0.00%     62.38% # attempts to use FU when none available
system.cpu.iq.fu_full::SimdAddAcc                   0      0.00%     62.38% # attempts to use FU when none available
system.cpu.iq.fu_full::SimdAlu                     12      0.02%     62.40% # attempts to use FU when none available
system.cpu.iq.fu_full::SimdCmp                      0      0.00%     62.40% # attempts to use FU when none available
system.cpu.iq.fu_full::SimdCvt                      4      0.01%     62.40% # attempts to use FU when none available
system.cpu.iq.fu_full::SimdMisc                     2      0.00%     62.41% # attempts to use FU when none available
system.cpu.iq.fu_full::SimdMult                     0      0.00%     62.41% # attempts to use FU when none available
system.cpu.iq.fu_full::SimdMultAcc                  0      0.00%     62.41% # attempts to use FU when none available
system.cpu.iq.fu_full::SimdShift                    1      0.00%     62.41% # attempts to use FU when none available
system.cpu.iq.fu_full::SimdShiftAcc                 0      0.00%     62.41% # attempts to use FU when none available
system.cpu.iq.fu_full::SimdSqrt                     0      0.00%     62.41% # attempts to use FU when none available
system.cpu.iq.fu_full::SimdFloatAdd                 4      0.01%     62.41% # attempts to use FU when none available
system.cpu.iq.fu_full::SimdFloatAlu                 0      0.00%     62.41% # attempts to use FU when none available
system.cpu.iq.fu_full::SimdFloatCmp                 0      0.00%     62.41% # attempts to use FU when none available
system.cpu.iq.fu_full::SimdFloatCvt                 0      0.00%     62.41% # attempts to use FU when none available
system.cpu.iq.fu_full::SimdFloatDiv                 0      0.00%     62.41% # attempts to use FU when none available
system.cpu.iq.fu_full::SimdFloatMisc                0      0.00%     62.41% # attempts to use FU when none available
system.cpu.iq.fu_full::SimdFloatMult            25157     35.89%     98.31% # attempts to use FU when none available
system.cpu.iq.fu_full::SimdFloatMultAcc             0      0.00%     98.31% # attempts to use FU when none available
system.cpu.iq.fu_full::SimdFloatSqrt                0      0.00%     98.31% # attempts to use FU when none available
system.cpu.iq.fu_full::SimdAes                      0      0.00%     98.31% # attempts to use FU when none available
system.cpu.iq.fu_full::SimdAesMix                   0      0.00%     98.31% # attempts to use FU when none available
system.cpu.iq.fu_full::SimdSha1Hash                 0      0.00%     98.31% # attempts to use FU when none available
system.cpu.iq.fu_full::SimdSha1Hash2                0      0.00%     98.31% # attempts to use FU when none available
system.cpu.iq.fu_full::SimdSha256Hash               0      0.00%     98.31% # attempts to use FU when none available
system.cpu.iq.fu_full::SimdSha256Hash2              0      0.00%     98.31% # attempts to use FU when none available
system.cpu.iq.fu_full::SimdShaSigma2                0      0.00%     98.31% # attempts to use FU when none available
system.cpu.iq.fu_full::SimdShaSigma3                0      0.00%     98.31% # attempts to use FU when none available
system.cpu.iq.fu_full::MemRead                    661      0.94%     99.25% # attempts to use FU when none available
system.cpu.iq.fu_full::MemWrite                   440      0.63%     99.88% # attempts to use FU when none available
system.cpu.iq.fu_full::FloatMemRead                64      0.09%     99.97% # attempts to use FU when none available
system.cpu.iq.fu_full::FloatMemWrite               22      0.03%    100.00% # attempts to use FU when none available
system.cpu.iq.fu_full::IprAccess                    0      0.00%    100.00% # attempts to use FU when none available
system.cpu.iq.fu_full::InstPrefetch                 0      0.00%    100.00% # attempts to use FU when none available
system.cpu.iq.FU_type_0::No_OpClass             35528      0.16%      0.16% # Type of FU issued
system.cpu.iq.FU_type_0::IntAlu               7208356     32.15%     32.31% # Type of FU issued
system.cpu.iq.FU_type_0::IntMult                   24      0.00%     32.31% # Type of FU issued
system.cpu.iq.FU_type_0::IntDiv                  1158      0.01%     32.32% # Type of FU issued
system.cpu.iq.FU_type_0::FloatAdd             4196805     18.72%     51.04% # Type of FU issued
system.cpu.iq.FU_type_0::FloatCmp                   0      0.00%     51.04% # Type of FU issued
system.cpu.iq.FU_type_0::FloatCvt                   0      0.00%     51.04% # Type of FU issued
system.cpu.iq.FU_type_0::FloatMult                  0      0.00%     51.04% # Type of FU issued
system.cpu.iq.FU_type_0::FloatMultAcc               0      0.00%     51.04% # Type of FU issued
system.cpu.iq.FU_type_0::FloatDiv                   0      0.00%     51.04% # Type of FU issued
system.cpu.iq.FU_type_0::FloatMisc                  0      0.00%     51.04% # Type of FU issued
system.cpu.iq.FU_type_0::FloatSqrt                  0      0.00%     51.04% # Type of FU issued
system.cpu.iq.FU_type_0::SimdAdd                  381      0.00%     51.04% # Type of FU issued
system.cpu.iq.FU_type_0::SimdAddAcc                 0      0.00%     51.04% # Type of FU issued
system.cpu.iq.FU_type_0::SimdAlu                  783      0.00%     51.04% # Type of FU issued
system.cpu.iq.FU_type_0::SimdCmp                    6      0.00%     51.04% # Type of FU issued
system.cpu.iq.FU_type_0::SimdCvt                  943      0.00%     51.05% # Type of FU issued
system.cpu.iq.FU_type_0::SimdMisc                 597      0.00%     51.05% # Type of FU issued
system.cpu.iq.FU_type_0::SimdMult                   0      0.00%     51.05% # Type of FU issued
system.cpu.iq.FU_type_0::SimdMultAcc                0      0.00%     51.05% # Type of FU issued
system.cpu.iq.FU_type_0::SimdShift                200      0.00%     51.05% # Type of FU issued
system.cpu.iq.FU_type_0::SimdShiftAcc               0      0.00%     51.05% # Type of FU issued
system.cpu.iq.FU_type_0::SimdSqrt                   0      0.00%     51.05% # Type of FU issued
system.cpu.iq.FU_type_0::SimdFloatAdd         2097273      9.36%     60.41% # Type of FU issued
system.cpu.iq.FU_type_0::SimdFloatAlu               0      0.00%     60.41% # Type of FU issued
system.cpu.iq.FU_type_0::SimdFloatCmp               0      0.00%     60.41% # Type of FU issued
system.cpu.iq.FU_type_0::SimdFloatCvt               0      0.00%     60.41% # Type of FU issued
system.cpu.iq.FU_type_0::SimdFloatDiv               0      0.00%     60.41% # Type of FU issued
system.cpu.iq.FU_type_0::SimdFloatMisc              0      0.00%     60.41% # Type of FU issued
system.cpu.iq.FU_type_0::SimdFloatMult        2097370      9.36%     69.76% # Type of FU issued
system.cpu.iq.FU_type_0::SimdFloatMultAcc            0      0.00%     69.76% # Type of FU issued
system.cpu.iq.FU_type_0::SimdFloatSqrt              0      0.00%     69.76% # Type of FU issued
system.cpu.iq.FU_type_0::SimdAes                    0      0.00%     69.76% # Type of FU issued
system.cpu.iq.FU_type_0::SimdAesMix                 0      0.00%     69.76% # Type of FU issued
system.cpu.iq.FU_type_0::SimdSha1Hash               0      0.00%     69.76% # Type of FU issued
system.cpu.iq.FU_type_0::SimdSha1Hash2              0      0.00%     69.76% # Type of FU issued
system.cpu.iq.FU_type_0::SimdSha256Hash             0      0.00%     69.76% # Type of FU issued
system.cpu.iq.FU_type_0::SimdSha256Hash2            0      0.00%     69.76% # Type of FU issued
system.cpu.iq.FU_type_0::SimdShaSigma2              0      0.00%     69.76% # Type of FU issued
system.cpu.iq.FU_type_0::SimdShaSigma3              0      0.00%     69.76% # Type of FU issued
system.cpu.iq.FU_type_0::MemRead                62556      0.28%     70.04% # Type of FU issued
system.cpu.iq.FU_type_0::MemWrite               13484      0.06%     70.10% # Type of FU issued
system.cpu.iq.FU_type_0::FloatMemRead         4605328     20.54%     90.64% # Type of FU issued
system.cpu.iq.FU_type_0::FloatMemWrite        2097625      9.36%    100.00% # Type of FU issued
system.cpu.iq.FU_type_0::IprAccess                  0      0.00%    100.00% # Type of FU issued
system.cpu.iq.FU_type_0::InstPrefetch               0      0.00%    100.00% # Type of FU issued
system.cpu.iq.FU_type_0::total               22418417                       # Type of FU issued
system.cpu.iq.rate                           3.073408                       # Inst issue rate
system.cpu.iq.fu_busy_cnt                       70090                       # FU busy when requested
system.cpu.iq.fu_busy_rate                   0.003126                       # FU busy rate (busy events/executed inst)
system.cpu.iq.int_inst_queue_reads           21942866                       # Number of integer instruction queue reads
system.cpu.iq.int_inst_queue_writes           7451012                       # Number of integer instruction queue writes
system.cpu.iq.int_inst_queue_wakeup_accesses      7312076                       # Number of integer instruction queue wakeup accesses
system.cpu.iq.fp_inst_queue_reads            30224208                       # Number of floating instruction queue reads
system.cpu.iq.fp_inst_queue_writes           14966224                       # Number of floating instruction queue writes
system.cpu.iq.fp_inst_queue_wakeup_accesses     14949272                       # Number of floating instruction queue wakeup accesses
system.cpu.iq.vec_inst_queue_reads                  0                       # Number of vector instruction queue reads
system.cpu.iq.vec_inst_queue_writes                 0                       # Number of vector instruction queue writes
system.cpu.iq.vec_inst_queue_wakeup_accesses            0                       # Number of vector instruction queue wakeup accesses
system.cpu.iq.int_alu_accesses                7326248                       # Number of integer alu accesses
system.cpu.iq.fp_alu_accesses                15126731                       # Number of floating point alu accesses
system.cpu.iq.vec_alu_accesses                      0                       # Number of vector alu accesses
system.cpu.iew.lsq.thread0.forwLoads             2379                       # Number of loads that had data forwarded from stores
system.cpu.iew.lsq.thread0.invAddrLoads             0                       # Number of loads ignored due to an invalid address
system.cpu.iew.lsq.thread0.squashedLoads        16079                       # Number of loads squashed
system.cpu.iew.lsq.thread0.ignoredResponses           11                       # Number of memory responses ignored because the instruction is squashed
system.cpu.iew.lsq.thread0.memOrderViolation          195                       # Number of memory ordering violations
system.cpu.iew.lsq.thread0.squashedStores         7193                       # Number of stores squashed
system.cpu.iew.lsq.thread0.invAddrSwpfs             0                       # Number of software prefetches ignored due to an invalid address
system.cpu.iew.lsq.thread0.blockedLoads             0                       # Number of blocked loads due to partial load-store forwarding
system.cpu.iew.lsq.thread0.rescheduledLoads       145417                       # Number of loads that were rescheduled
system.cpu.iew.lsq.thread0.cacheBlocked          1269                       # Number of times an access to memory failed due to the cache being blocked
system.cpu.iew.iewIdleCycles                        0                       # Number of cycles IEW is idle
system.cpu.iew.iewSquashCycles                   3176                       # Number of cycles IEW is squashing
system.cpu.iew.iewBlockCycles                   52353                       # Number of cycles IEW is blocking
system.cpu.iew.iewUnblockCycles                 64395                       # Number of cycles IEW is unblocking
system.cpu.iew.iewDispatchedInsts            22308568                       # Number of instructions dispatched to IQ
system.cpu.iew.iewDispSquashedInsts               110                       # Number of squashed instructions skipped by dispatch
system.cpu.iew.iewDispLoadInsts               4526150                       # Number of dispatched load instructions
system.cpu.iew.iewDispStoreInsts              2114141                       # Number of dispatched store instructions
system.cpu.iew.iewDispNonSpecInsts                 57                       # Number of dispatched non-speculative instructions
system.cpu.iew.iewIQFullEvents                    680                       # Number of times the IQ has become full, causing a stall
system.cpu.iew.iewLSQFullEvents                 61057                       # Number of times the LSQ has become full, causing a stall
system.cpu.iew.memOrderViolationEvents            195                       # Number of memory order violations
system.cpu.iew.predictedTakenIncorrect            959                       # Number of branches that were predicted taken incorrectly
system.cpu.iew.predictedNotTakenIncorrect         2763                       # Number of branches that were predicted not taken incorrectly
system.cpu.iew.branchMispredicts                 3722                       # Number of branch mispredicts detected at execute
system.cpu.iew.iewExecutedInsts              22411691                       # Number of executed instructions
system.cpu.iew.iewExecLoadInsts               4666220                       # Number of load instructions executed
system.cpu.iew.iewExecSquashedInsts              6726                       # Number of squashed instructions skipped in execute
system.cpu.iew.exec_swp                             0                       # number of swp insts executed
system.cpu.iew.exec_nop                             0                       # number of nop insts executed
system.cpu.iew.exec_refs                      6776781                       # number of memory reference insts executed
system.cpu.iew.exec_branches                   313603                       # Number of branches executed
system.cpu.iew.exec_stores                    2110561                       # Number of stores executed
system.cpu.iew.exec_rate                     3.072486                       # Inst execution rate
system.cpu.iew.wb_sent                       22262840                       # cumulative count of insts sent to commit
system.cpu.iew.wb_count                      22261348                       # cumulative count of insts written-back
system.cpu.iew.wb_producers                  13781700                       # num instructions producing a value
system.cpu.iew.wb_consumers                  19641233                       # num instructions consuming a value
system.cpu.iew.wb_rate                       3.051875                       # insts written-back per cycle
system.cpu.iew.wb_fanout                     0.701672                       # average fanout of values written-back
system.cpu.commit.commitSquashedInsts          108605                       # The number of squashed insts skipped by commit
system.cpu.commit.commitNonSpecStalls              27                       # The number of times commit has been forced to stall to communicate backwards
system.cpu.commit.branchMispredicts              3015                       # The number of times a branch was mispredicted
system.cpu.commit.committed_per_cycle::samples      7243082                       # Number of insts commited each cycle
system.cpu.commit.committed_per_cycle::mean     3.065005                       # Number of insts commited each cycle
system.cpu.commit.committed_per_cycle::stdev     3.431131                       # Number of insts commited each cycle
system.cpu.commit.committed_per_cycle::underflows            0      0.00%      0.00% # Number of insts commited each cycle
system.cpu.commit.committed_per_cycle::0      2263677     31.25%     31.25% # Number of insts commited each cycle
system.cpu.commit.committed_per_cycle::1      2244161     30.98%     62.24% # Number of insts commited each cycle
system.cpu.commit.committed_per_cycle::2        34023      0.47%     62.71% # Number of insts commited each cycle
system.cpu.commit.committed_per_cycle::3        12317      0.17%     62.88% # Number of insts commited each cycle
system.cpu.commit.committed_per_cycle::4       258102      3.56%     66.44% # Number of insts commited each cycle
system.cpu.commit.committed_per_cycle::5        35386      0.49%     66.93% # Number of insts commited each cycle
system.cpu.commit.committed_per_cycle::6       163905      2.26%     69.19% # Number of insts commited each cycle
system.cpu.commit.committed_per_cycle::7       193930      2.68%     71.87% # Number of insts commited each cycle
system.cpu.commit.committed_per_cycle::8      2037581     28.13%    100.00% # Number of insts commited each cycle
system.cpu.commit.committed_per_cycle::overflows            0      0.00%    100.00% # Number of insts commited each cycle
system.cpu.commit.committed_per_cycle::min_value            0                       # Number of insts commited each cycle
system.cpu.commit.committed_per_cycle::max_value            8                       # Number of insts commited each cycle
system.cpu.commit.committed_per_cycle::total      7243082                       # Number of insts commited each cycle
system.cpu.commit.committedInsts             14399449                       # Number of instructions committed
system.cpu.commit.committedOps               22200084                       # Number of ops (including micro ops) committed
system.cpu.commit.swp_count                         0                       # Number of s/w prefetches committed
system.cpu.commit.refs                        6617019                       # Number of memory references committed
system.cpu.commit.loads                       4510071                       # Number of loads committed
system.cpu.commit.membars                           0                       # Number of memory barriers committed
system.cpu.commit.branches                     310224                       # Number of branches committed
system.cpu.commit.vec_insts                         0                       # Number of committed Vector instructions.
system.cpu.commit.fp_insts                   14945212                       # Number of committed floating point instructions.
system.cpu.commit.int_insts                  13775566                       # Number of committed integer instructions.
system.cpu.commit.function_calls                  588                       # Number of function calls committed.
system.cpu.commit.op_class_0::No_OpClass        34178      0.15%      0.15% # Class of committed instruction
system.cpu.commit.op_class_0::IntAlu          7157226     32.24%     32.39% # Class of committed instruction
system.cpu.commit.op_class_0::IntMult              11      0.00%     32.39% # Class of committed instruction
system.cpu.commit.op_class_0::IntDiv             1083      0.00%     32.40% # Class of committed instruction
system.cpu.commit.op_class_0::FloatAdd        4194322     18.89%     51.29% # Class of committed instruction
system.cpu.commit.op_class_0::FloatCmp              0      0.00%     51.29% # Class of committed instruction
system.cpu.commit.op_class_0::FloatCvt              0      0.00%     51.29% # Class of committed instruction
system.cpu.commit.op_class_0::FloatMult             0      0.00%     51.29% # Class of committed instruction
system.cpu.commit.op_class_0::FloatMultAcc            0      0.00%     51.29% # Class of committed instruction
system.cpu.commit.op_class_0::FloatDiv              0      0.00%     51.29% # Class of committed instruction
system.cpu.commit.op_class_0::FloatMisc             0      0.00%     51.29% # Class of committed instruction
system.cpu.commit.op_class_0::FloatSqrt             0      0.00%     51.29% # Class of committed instruction
system.cpu.commit.op_class_0::SimdAdd             284      0.00%     51.29% # Class of committed instruction
system.cpu.commit.op_class_0::SimdAddAcc            0      0.00%     51.29% # Class of committed instruction
system.cpu.commit.op_class_0::SimdAlu             403      0.00%     51.29% # Class of committed instruction
system.cpu.commit.op_class_0::SimdCmp               6      0.00%     51.29% # Class of committed instruction
system.cpu.commit.op_class_0::SimdCvt             664      0.00%     51.30% # Class of committed instruction
system.cpu.commit.op_class_0::SimdMisc            482      0.00%     51.30% # Class of committed instruction
system.cpu.commit.op_class_0::SimdMult              0      0.00%     51.30% # Class of committed instruction
system.cpu.commit.op_class_0::SimdMultAcc            0      0.00%     51.30% # Class of committed instruction
system.cpu.commit.op_class_0::SimdShift           102      0.00%     51.30% # Class of committed instruction
system.cpu.commit.op_class_0::SimdShiftAcc            0      0.00%     51.30% # Class of committed instruction
system.cpu.commit.op_class_0::SimdSqrt              0      0.00%     51.30% # Class of committed instruction
system.cpu.commit.op_class_0::SimdFloatAdd      2097152      9.45%     60.75% # Class of committed instruction
system.cpu.commit.op_class_0::SimdFloatAlu            0      0.00%     60.75% # Class of committed instruction
system.cpu.commit.op_class_0::SimdFloatCmp            0      0.00%     60.75% # Class of committed instruction
system.cpu.commit.op_class_0::SimdFloatCvt            0      0.00%     60.75% # Class of committed instruction
system.cpu.commit.op_class_0::SimdFloatDiv            0      0.00%     60.75% # Class of committed instruction
system.cpu.commit.op_class_0::SimdFloatMisc            0      0.00%     60.75% # Class of committed instruction
system.cpu.commit.op_class_0::SimdFloatMult      2097152      9.45%     70.19% # Class of committed instruction
system.cpu.commit.op_class_0::SimdFloatMultAcc            0      0.00%     70.19% # Class of committed instruction
system.cpu.commit.op_class_0::SimdFloatSqrt            0      0.00%     70.19% # Class of committed instruction
system.cpu.commit.op_class_0::SimdAes               0      0.00%     70.19% # Class of committed instruction
system.cpu.commit.op_class_0::SimdAesMix            0      0.00%     70.19% # Class of committed instruction
system.cpu.commit.op_class_0::SimdSha1Hash            0      0.00%     70.19% # Class of committed instruction
system.cpu.commit.op_class_0::SimdSha1Hash2            0      0.00%     70.19% # Class of committed instruction
system.cpu.commit.op_class_0::SimdSha256Hash            0      0.00%     70.19% # Class of committed instruction
system.cpu.commit.op_class_0::SimdSha256Hash2            0      0.00%     70.19% # Class of committed instruction
system.cpu.commit.op_class_0::SimdShaSigma2            0      0.00%     70.19% # Class of committed instruction
system.cpu.commit.op_class_0::SimdShaSigma3            0      0.00%     70.19% # Class of committed instruction
system.cpu.commit.op_class_0::MemRead           52961      0.24%     70.43% # Class of committed instruction
system.cpu.commit.op_class_0::MemWrite           9460      0.04%     70.47% # Class of committed instruction
system.cpu.commit.op_class_0::FloatMemRead      4457110     20.08%     90.55% # Class of committed instruction
system.cpu.commit.op_class_0::FloatMemWrite      2097488      9.45%    100.00% # Class of committed instruction
system.cpu.commit.op_class_0::IprAccess             0      0.00%    100.00% # Class of committed instruction
system.cpu.commit.op_class_0::InstPrefetch            0      0.00%    100.00% # Class of committed instruction
system.cpu.commit.op_class_0::total          22200084                       # Class of committed instruction
system.cpu.commit.bw_lim_events               2037581                       # number cycles where commit BW limit reached
system.cpu.rob.rob_reads                     27514190                       # The number of ROB reads
system.cpu.rob.rob_writes                    44633789                       # The number of ROB writes
system.cpu.timesIdled                             489                       # Number of times that the entire CPU went into an idle state and unscheduled itself
system.cpu.idleCycles                           35000                       # Total number of cycles that the CPU has spent unscheduled due to idling
system.cpu.committedInsts                    14399449                       # Number of Instructions Simulated
system.cpu.committedOps                      22200084                       # Number of Ops (including micro ops) Simulated
system.cpu.cpi                               0.506569                       # CPI: Cycles Per Instruction
system.cpu.cpi_total                         0.506569                       # CPI: Total CPI of All Threads
system.cpu.ipc                               1.974064                       # IPC: Instructions Per Cycle
system.cpu.ipc_total                         1.974064                       # IPC: Total IPC of All Threads
system.cpu.int_regfile_reads                 25076111                       # number of integer regfile reads
system.cpu.int_regfile_writes                 6954410                       # number of integer regfile writes
system.cpu.fp_regfile_reads                  14688198                       # number of floating regfile reads
system.cpu.fp_regfile_writes                 12851380                       # number of floating regfile writes
system.cpu.cc_regfile_reads                   1576850                       # number of cc regfile reads
system.cpu.cc_regfile_writes                  1774025                       # number of cc regfile writes
system.cpu.misc_regfile_reads                 7408539                       # number of misc regfile reads
system.cpu.dcache.tags.pwrStateResidencyTicks::UNDEFINED   7294317000                       # Cumulative time (in ticks) in various power states
system.cpu.dcache.tags.tagsinuse          1014.920847                       # Cycle average of tags in use
system.cpu.dcache.tags.total_refs             6847887                       # Total number of references to valid blocks.
system.cpu.dcache.tags.sampled_refs             40827                       # Sample count of references to valid blocks.
system.cpu.dcache.tags.avg_refs            167.729370                       # Average number of references to valid blocks.
system.cpu.dcache.tags.warmup_cycle            232000                       # Cycle when the warmup percentage was hit.
system.cpu.dcache.tags.occ_blocks::.cpu.data  1014.920847                       # Average occupied blocks per requestor
system.cpu.dcache.tags.occ_percent::.cpu.data     0.991134                       # Average percentage of cache occupancy
system.cpu.dcache.tags.occ_percent::total     0.991134                       # Average percentage of cache occupancy
system.cpu.dcache.tags.occ_task_id_blocks::1024         1024                       # Occupied blocks per task id
system.cpu.dcache.tags.age_task_id_blocks_1024::0          113                       # Occupied blocks per task id
system.cpu.dcache.tags.age_task_id_blocks_1024::1          189                       # Occupied blocks per task id
system.cpu.dcache.tags.age_task_id_blocks_1024::2          137                       # Occupied blocks per task id
system.cpu.dcache.tags.age_task_id_blocks_1024::3          585                       # Occupied blocks per task id
system.cpu.dcache.tags.occ_task_id_percent::1024            1                       # Percentage of cache occupancy per task id
system.cpu.dcache.tags.tag_accesses          55129019                       # Number of tag accesses
system.cpu.dcache.tags.data_accesses         55129019                       # Number of data accesses
system.cpu.dcache.pwrStateResidencyTicks::UNDEFINED   7294317000                       # Cumulative time (in ticks) in various power states
system.cpu.dcache.ReadReq_hits::.cpu.data      4700874                       # number of ReadReq hits
system.cpu.dcache.ReadReq_hits::total         4700874                       # number of ReadReq hits
system.cpu.dcache.WriteReq_hits::.cpu.data      2106186                       # number of WriteReq hits
system.cpu.dcache.WriteReq_hits::total        2106186                       # number of WriteReq hits
system.cpu.dcache.demand_hits::.cpu.data      6807060                       # number of demand (read+write) hits
system.cpu.dcache.demand_hits::total          6807060                       # number of demand (read+write) hits
system.cpu.dcache.overall_hits::.cpu.data      6807060                       # number of overall hits
system.cpu.dcache.overall_hits::total         6807060                       # number of overall hits
system.cpu.dcache.ReadReq_misses::.cpu.data        78202                       # number of ReadReq misses
system.cpu.dcache.ReadReq_misses::total         78202                       # number of ReadReq misses
system.cpu.dcache.WriteReq_misses::.cpu.data          762                       # number of WriteReq misses
system.cpu.dcache.WriteReq_misses::total          762                       # number of WriteReq misses
system.cpu.dcache.demand_misses::.cpu.data        78964                       # number of demand (read+write) misses
system.cpu.dcache.demand_misses::total          78964                       # number of demand (read+write) misses
system.cpu.dcache.overall_misses::.cpu.data        78964                       # number of overall misses
system.cpu.dcache.overall_misses::total         78964                       # number of overall misses
system.cpu.dcache.ReadReq_miss_latency::.cpu.data   2524203000                       # number of ReadReq miss cycles
system.cpu.dcache.ReadReq_miss_latency::total   2524203000                       # number of ReadReq miss cycles
system.cpu.dcache.WriteReq_miss_latency::.cpu.data     53246000                       # number of WriteReq miss cycles
system.cpu.dcache.WriteReq_miss_latency::total     53246000                       # number of WriteReq miss cycles
system.cpu.dcache.demand_miss_latency::.cpu.data   2577449000                       # number of demand (read+write) miss cycles
system.cpu.dcache.demand_miss_latency::total   2577449000                       # number of demand (read+write) miss cycles
system.cpu.dcache.overall_miss_latency::.cpu.data   2577449000                       # number of overall miss cycles
system.cpu.dcache.overall_miss_latency::total   2577449000                       # number of overall miss cycles
system.cpu.dcache.ReadReq_accesses::.cpu.data      4779076                       # number of ReadReq accesses(hits+misses)
system.cpu.dcache.ReadReq_accesses::total      4779076                       # number of ReadReq accesses(hits+misses)
[...]
system.l2.WritebackClean_accesses::total           89                       # number of WritebackClean accesses(hits+misses)
system.l2.ReadExReq_accesses::.cpu.data           632                       # number of ReadExReq accesses(hits+misses)
system.l2.ReadExReq_accesses::total               632                       # number of ReadExReq accesses(hits+misses)
system.l2.ReadCleanReq_accesses::.cpu.inst          819                       # number of ReadCleanReq accesses(hits+misses)
system.l2.ReadCleanReq_accesses::total            819                       # number of ReadCleanReq accesses(hits+misses)
system.l2.ReadSharedReq_accesses::.cpu.data        40195                       # number of ReadSharedReq accesses(hits+misses)
system.l2.ReadSharedReq_accesses::total         40195                       # number of ReadSharedReq accesses(hits+misses)
system.l2.demand_accesses::.cpu.inst              819                       # number of demand (read+write) accesses
system.l2.demand_accesses::.cpu.data            40827                       # number of demand (read+write) accesses
system.l2.demand_accesses::total                41646                       # number of demand (read+write) accesses
system.l2.overall_accesses::.cpu.inst             819                       # number of overall (read+write) accesses
system.l2.overall_accesses::.cpu.data           40827                       # number of overall (read+write) accesses
system.l2.overall_accesses::total               41646                       # number of overall (read+write) accesses
system.l2.ReadExReq_miss_rate::.cpu.data     0.651899                       # miss rate for ReadExReq accesses
system.l2.ReadExReq_miss_rate::total         0.651899                       # miss rate for ReadExReq accesses
system.l2.ReadCleanReq_miss_rate::.cpu.inst     0.984127                       # miss rate for ReadCleanReq accesses
system.l2.ReadCleanReq_miss_rate::total      0.984127                       # miss rate for ReadCleanReq accesses
system.l2.ReadSharedReq_miss_rate::.cpu.data     0.103122                       # miss rate for ReadSharedReq accesses
system.l2.ReadSharedReq_miss_rate::total     0.103122                       # miss rate for ReadSharedReq accesses
system.l2.demand_miss_rate::.cpu.inst        0.984127                       # miss rate for demand accesses
system.l2.demand_miss_rate::.cpu.data        0.111617                       # miss rate for demand accesses
system.l2.demand_miss_rate::total            0.128776                       # miss rate for demand accesses
system.l2.overall_miss_rate::.cpu.inst       0.984127                       # miss rate for overall accesses
system.l2.overall_miss_rate::.cpu.data       0.111617                       # miss rate for overall accesses
system.l2.overall_miss_rate::total           0.128776                       # miss rate for overall accesses
system.l2.ReadExReq_avg_miss_latency::.cpu.data       101500                       # average ReadExReq miss latency
system.l2.ReadExReq_avg_miss_latency::total       101500                       # average ReadExReq miss latency
system.l2.ReadCleanReq_avg_miss_latency::.cpu.inst 106799.007444                       # average ReadCleanReq miss latency
system.l2.ReadCleanReq_avg_miss_latency::total 106799.007444                       # average ReadCleanReq miss latency
system.l2.ReadSharedReq_avg_miss_latency::.cpu.data 130183.353438                       # average ReadSharedReq miss latency
system.l2.ReadSharedReq_avg_miss_latency::total 130183.353438                       # average ReadSharedReq miss latency
system.l2.demand_avg_miss_latency::.cpu.inst 106799.007444                       # average overall miss latency
system.l2.demand_avg_miss_latency::.cpu.data 127590.081194                       # average overall miss latency
system.l2.demand_avg_miss_latency::total 124465.411150                       # average overall miss latency
system.l2.overall_avg_miss_latency::.cpu.inst 106799.007444                       # average overall miss latency
system.l2.overall_avg_miss_latency::.cpu.data 127590.081194                       # average overall miss latency
system.l2.overall_avg_miss_latency::total 124465.411150                       # average overall miss latency
system.l2.blocked_cycles::no_mshrs                  0                       # number of cycles access was blocked
system.l2.blocked_cycles::no_targets                0                       # number of cycles access was blocked
system.l2.blocked::no_mshrs                         0                       # number of cycles access was blocked
system.l2.blocked::no_targets                       0                       # number of cycles access was blocked
system.l2.avg_blocked_cycles::no_mshrs            nan                       # average number of cycles each access was blocked
system.l2.avg_blocked_cycles::no_targets          nan                       # average number of cycles each access was blocked
system.l2.ReadExReq_mshr_misses::.cpu.data          412                       # number of ReadExReq MSHR misses
system.l2.ReadExReq_mshr_misses::total            412                       # number of ReadExReq MSHR misses
system.l2.ReadCleanReq_mshr_misses::.cpu.inst          806                       # number of ReadCleanReq MSHR misses
system.l2.ReadCleanReq_mshr_misses::total          806                       # number of ReadCleanReq MSHR misses
system.l2.ReadSharedReq_mshr_misses::.cpu.data         4145                       # number of ReadSharedReq MSHR misses
system.l2.ReadSharedReq_mshr_misses::total         4145                       # number of ReadSharedReq MSHR misses
system.l2.demand_mshr_misses::.cpu.inst           806                       # number of demand (read+write) MSHR misses
system.l2.demand_mshr_misses::.cpu.data          4557                       # number of demand (read+write) MSHR misses
system.l2.demand_mshr_misses::total              5363                       # number of demand (read+write) MSHR misses
system.l2.overall_mshr_misses::.cpu.inst          806                       # number of overall MSHR misses
system.l2.overall_mshr_misses::.cpu.data         4557                       # number of overall MSHR misses
system.l2.overall_mshr_misses::total             5363                       # number of overall MSHR misses
system.l2.ReadExReq_mshr_miss_latency::.cpu.data     33578000                       # number of ReadExReq MSHR miss cycles
system.l2.ReadExReq_mshr_miss_latency::total     33578000                       # number of ReadExReq MSHR miss cycles
system.l2.ReadCleanReq_mshr_miss_latency::.cpu.inst     69960000                       # number of ReadCleanReq MSHR miss cycles
system.l2.ReadCleanReq_mshr_miss_latency::total     69960000                       # number of ReadCleanReq MSHR miss cycles
system.l2.ReadSharedReq_mshr_miss_latency::.cpu.data    456710000                       # number of ReadSharedReq MSHR miss cycles
system.l2.ReadSharedReq_mshr_miss_latency::total    456710000                       # number of ReadSharedReq MSHR miss cycles
system.l2.demand_mshr_miss_latency::.cpu.inst     69960000                       # number of demand (read+write) MSHR miss cycles
system.l2.demand_mshr_miss_latency::.cpu.data    490288000                       # number of demand (read+write) MSHR miss cycles
system.l2.demand_mshr_miss_latency::total    560248000                       # number of demand (read+write) MSHR miss cycles
system.l2.overall_mshr_miss_latency::.cpu.inst     69960000                       # number of overall MSHR miss cycles
system.l2.overall_mshr_miss_latency::.cpu.data    490288000                       # number of overall MSHR miss cycles
system.l2.overall_mshr_miss_latency::total    560248000                       # number of overall MSHR miss cycles
system.l2.ReadExReq_mshr_miss_rate::.cpu.data     0.651899                       # mshr miss rate for ReadExReq accesses
system.l2.ReadExReq_mshr_miss_rate::total     0.651899                       # mshr miss rate for ReadExReq accesses
system.l2.ReadCleanReq_mshr_miss_rate::.cpu.inst     0.984127                       # mshr miss rate for ReadCleanReq accesses
system.l2.ReadCleanReq_mshr_miss_rate::total     0.984127                       # mshr miss rate for ReadCleanReq accesses
system.l2.ReadSharedReq_mshr_miss_rate::.cpu.data     0.103122                       # mshr miss rate for ReadSharedReq accesses
system.l2.ReadSharedReq_mshr_miss_rate::total     0.103122                       # mshr miss rate for ReadSharedReq accesses
system.l2.demand_mshr_miss_rate::.cpu.inst     0.984127                       # mshr miss rate for demand accesses
system.l2.demand_mshr_miss_rate::.cpu.data     0.111617                       # mshr miss rate for demand accesses
system.l2.demand_mshr_miss_rate::total       0.128776                       # mshr miss rate for demand accesses
system.l2.overall_mshr_miss_rate::.cpu.inst     0.984127                       # mshr miss rate for overall accesses
system.l2.overall_mshr_miss_rate::.cpu.data     0.111617                       # mshr miss rate for overall accesses
system.l2.overall_mshr_miss_rate::total      0.128776                       # mshr miss rate for overall accesses
system.l2.ReadExReq_avg_mshr_miss_latency::.cpu.data        81500                       # average ReadExReq mshr miss latency
system.l2.ReadExReq_avg_mshr_miss_latency::total        81500                       # average ReadExReq mshr miss latency
system.l2.ReadCleanReq_avg_mshr_miss_latency::.cpu.inst 86799.007444                       # average ReadCleanReq mshr miss latency
system.l2.ReadCleanReq_avg_mshr_miss_latency::total 86799.007444                       # average ReadCleanReq mshr miss latency
system.l2.ReadSharedReq_avg_mshr_miss_latency::.cpu.data 110183.353438                       # average ReadSharedReq mshr miss latency
system.l2.ReadSharedReq_avg_mshr_miss_latency::total 110183.353438                       # average ReadSharedReq mshr miss latency
system.l2.demand_avg_mshr_miss_latency::.cpu.inst 86799.007444                       # average overall mshr miss latency
system.l2.demand_avg_mshr_miss_latency::.cpu.data 107590.081194                       # average overall mshr miss latency
system.l2.demand_avg_mshr_miss_latency::total 104465.411150                       # average overall mshr miss latency
system.l2.overall_avg_mshr_miss_latency::.cpu.inst 86799.007444                       # average overall mshr miss latency
system.l2.overall_avg_mshr_miss_latency::.cpu.data 107590.081194                       # average overall mshr miss latency
system.l2.overall_avg_mshr_miss_latency::total 104465.411150                       # average overall mshr miss latency
system.l2.replacements                              0                       # number of replacements
system.membus.snoop_filter.tot_requests          5363                       # Total number of requests made to the snoop filter.
system.membus.snoop_filter.hit_single_requests            0                       # Number of requests hitting in the snoop filter with a single holder of the requested data.
system.membus.snoop_filter.hit_multi_requests            0                       # Number of requests hitting in the snoop filter with multiple (>1) holders of the requested data.
system.membus.snoop_filter.tot_snoops               0                       # Total number of snoops made to the snoop filter.
system.membus.snoop_filter.hit_single_snoops            0                       # Number of snoops hitting in the snoop filter with a single holder of the requested data.
system.membus.snoop_filter.hit_multi_snoops            0                       # Number of snoops hitting in the snoop filter with multiple (>1) holders of the requested data.
system.membus.pwrStateResidencyTicks::UNDEFINED   7294317000                       # Cumulative time (in ticks) in various power states
system.membus.trans_dist::ReadResp               4951                       # Transaction distribution
system.membus.trans_dist::ReadExReq               412                       # Transaction distribution
system.membus.trans_dist::ReadExResp              412                       # Transaction distribution
system.membus.trans_dist::ReadSharedReq          4951                       # Transaction distribution
system.membus.pkt_count_system.l2.mem_side::system.mem_ctrls.port        10726                       # Packet count per connected master and slave (bytes)
system.membus.pkt_count_system.l2.mem_side::total        10726                       # Packet count per connected master and slave (bytes)
system.membus.pkt_count::total                  10726                       # Packet count per connected master and slave (bytes)
system.membus.pkt_size_system.l2.mem_side::system.mem_ctrls.port       343232                       # Cumulative packet size per connected master and slave (bytes)
system.membus.pkt_size_system.l2.mem_side::total       343232                       # Cumulative packet size per connected master and slave (bytes)
system.membus.pkt_size::total                  343232                       # Cumulative packet size per connected master and slave (bytes)
system.membus.snoops                                0                       # Total snoops (count)
system.membus.snoopTraffic                          0                       # Total snoop traffic (bytes)
system.membus.snoop_fanout::samples              5363                       # Request fanout histogram
system.membus.snoop_fanout::mean                    0                       # Request fanout histogram
system.membus.snoop_fanout::stdev                   0                       # Request fanout histogram
system.membus.snoop_fanout::underflows              0      0.00%      0.00% # Request fanout histogram
system.membus.snoop_fanout::0                    5363    100.00%    100.00% # Request fanout histogram
system.membus.snoop_fanout::1                       0      0.00%    100.00% # Request fanout histogram
system.membus.snoop_fanout::overflows               0      0.00%    100.00% # Request fanout histogram
system.membus.snoop_fanout::min_value               0                       # Request fanout histogram
system.membus.snoop_fanout::max_value               0                       # Request fanout histogram
system.membus.snoop_fanout::total                5363                       # Request fanout histogram
system.membus.reqLayer2.occupancy             5363000                       # Layer occupancy (ticks)
system.membus.reqLayer2.utilization               0.1                       # Layer utilization (%)
system.membus.respLayer1.occupancy           28276750                       # Layer occupancy (ticks)
system.membus.respLayer1.utilization              0.4                       # Layer utilization (%)
system.tol2bus.snoop_filter.tot_requests        81539                       # Total number of requests made to the snoop filter.
system.tol2bus.snoop_filter.hit_single_requests        39893                       # Number of requests hitting in the snoop filter with a single holder of the requested data.
system.tol2bus.snoop_filter.hit_multi_requests            7                       # Number of requests hitting in the snoop filter with multiple (>1) holders of the requested data.
system.tol2bus.snoop_filter.tot_snoops              0                       # Total number of snoops made to the snoop filter.
system.tol2bus.snoop_filter.hit_single_snoops            0                       # Number of snoops hitting in the snoop filter with a single holder of the requested data.
system.tol2bus.snoop_filter.hit_multi_snoops            0                       # Number of snoops hitting in the snoop filter with multiple (>1) holders of the requested data.
system.tol2bus.pwrStateResidencyTicks::UNDEFINED   7294317000                       # Cumulative time (in ticks) in various power states
system.tol2bus.trans_dist::ReadResp             41014                       # Transaction distribution
system.tol2bus.trans_dist::WritebackDirty        16706                       # Transaction distribution
system.tol2bus.trans_dist::WritebackClean           90                       # Transaction distribution
system.tol2bus.trans_dist::CleanEvict           23097                       # Transaction distribution
system.tol2bus.trans_dist::ReadExReq              632                       # Transaction distribution
system.tol2bus.trans_dist::ReadExResp             632                       # Transaction distribution
system.tol2bus.trans_dist::ReadCleanReq           819                       # Transaction distribution
system.tol2bus.trans_dist::ReadSharedReq        40195                       # Transaction distribution
system.tol2bus.pkt_count_system.cpu.icache.mem_side::system.l2.cpu_side         1728                       # Packet count per connected master and slave (bytes)
system.tol2bus.pkt_count_system.cpu.dcache.mem_side::system.l2.cpu_side       121457                       # Packet count per connected master and slave (bytes)
system.tol2bus.pkt_count::total                123185                       # Packet count per connected master and slave (bytes)
system.tol2bus.pkt_size_system.cpu.icache.mem_side::system.l2.cpu_side        58176                       # Cumulative packet size per connected master and slave (bytes)
system.tol2bus.pkt_size_system.cpu.dcache.mem_side::system.l2.cpu_side      3682112                       # Cumulative packet size per connected master and slave (bytes)
system.tol2bus.pkt_size::total                3740288                       # Cumulative packet size per connected master and slave (bytes)
system.tol2bus.snoops                               0                       # Total snoops (count)
system.tol2bus.snoopTraffic                         0                       # Total snoop traffic (bytes)
system.tol2bus.snoop_fanout::samples            41646                       # Request fanout histogram
system.tol2bus.snoop_fanout::mean            0.000168                       # Request fanout histogram
system.tol2bus.snoop_fanout::stdev           0.012964                       # Request fanout histogram
system.tol2bus.snoop_fanout::underflows             0      0.00%      0.00% # Request fanout histogram
system.tol2bus.snoop_fanout::0                  41639     99.98%     99.98% # Request fanout histogram
system.tol2bus.snoop_fanout::1                      7      0.02%    100.00% # Request fanout histogram
system.tol2bus.snoop_fanout::2                      0      0.00%    100.00% # Request fanout histogram
system.tol2bus.snoop_fanout::3                      0      0.00%    100.00% # Request fanout histogram
system.tol2bus.snoop_fanout::4                      0      0.00%    100.00% # Request fanout histogram
system.tol2bus.snoop_fanout::overflows              0      0.00%    100.00% # Request fanout histogram
system.tol2bus.snoop_fanout::min_value              0                       # Request fanout histogram
system.tol2bus.snoop_fanout::max_value              1                       # Request fanout histogram
system.tol2bus.snoop_fanout::total              41646                       # Request fanout histogram
system.tol2bus.reqLayer0.occupancy          115131000                       # Layer occupancy (ticks)
system.tol2bus.reqLayer0.utilization              1.6                       # Layer utilization (%)
system.tol2bus.respLayer0.occupancy           2458998                       # Layer occupancy (ticks)
system.tol2bus.respLayer0.utilization             0.0                       # Layer utilization (%)
system.tol2bus.respLayer1.occupancy         122481000                       # Layer occupancy (ticks)
system.tol2bus.respLayer1.utilization             1.7                       # Layer utilization (%)

---------- End Simulation Statistics   ----------
