
---------- Begin Simulation Statistics ----------
sim_seconds                                  0.015818                       # Number of seconds simulated
sim_ticks                                 15817831000                       # Number of ticks simulated
final_tick                                15817831000                       # Number of ticks from beginning of simulation (restored from checkpoints and never reset)
sim_freq                                 1000000000000                       # Frequency of simulated ticks
host_inst_rate                                  53347                       # Simulator instruction rate (inst/s)
host_op_rate                                    82672                       # Simulator op (including micro ops) rate (op/s)
host_tick_rate                              151281708                       # Simulator tick rate (ticks/s)
host_mem_usage                                 661124                       # Number of bytes of host memory used
host_seconds                                   104.56                       # Real time elapsed on the host
sim_insts                                     5577907                       # Number of instructions simulated
sim_ops                                       8644102                       # Number of ops (including micro ops) simulated
system.clk_domain.voltage_domain.voltage            1                       # Voltage in Volts
system.clk_domain.clock                          1000                       # Clock period in ticks
system.mem_ctrl.pwrStateResidencyTicks::UNDEFINED  15817831000                       # Cumulative time (in ticks) in various power states
system.mem_ctrl.bytes_read::.cpu.inst           52032                       # Number of bytes read from this memory
system.mem_ctrl.bytes_read::.cpu.data        30021952                       # Number of bytes read from this memory
system.mem_ctrl.bytes_read::total            30073984                       # Number of bytes read from this memory
system.mem_ctrl.bytes_inst_read::.cpu.inst        52032                       # Number of instructions bytes read from this memory
system.mem_ctrl.bytes_inst_read::total          52032                       # Number of instructions bytes read from this memory
system.mem_ctrl.bytes_written::.writebacks        30336                       # Number of bytes written to this memory
system.mem_ctrl.bytes_written::total            30336                       # Number of bytes written to this memory
system.mem_ctrl.num_reads::.cpu.inst              813                       # Number of read requests responded to by this memory
system.mem_ctrl.num_reads::.cpu.data           469093                       # Number of read requests responded to by this memory
system.mem_ctrl.num_reads::total               469906                       # Number of read requests responded to by this memory
system.mem_ctrl.num_writes::.writebacks           474                       # Number of write requests responded to by this memory
system.mem_ctrl.num_writes::total                 474                       # Number of write requests responded to by this memory
system.mem_ctrl.bw_read::.cpu.inst            3289452                       # Total read bandwidth from this memory (bytes/s)
system.mem_ctrl.bw_read::.cpu.data         1897981588                       # Total read bandwidth from this memory (bytes/s)
system.mem_ctrl.bw_read::total             1901271040                       # Total read bandwidth from this memory (bytes/s)
system.mem_ctrl.bw_inst_read::.cpu.inst       3289452                       # Instruction read bandwidth from this memory (bytes/s)
system.mem_ctrl.bw_inst_read::total           3289452                       # Instruction read bandwidth from this memory (bytes/s)
system.mem_ctrl.bw_write::.writebacks         1917836                       # Write bandwidth from this memory (bytes/s)
system.mem_ctrl.bw_write::total               1917836                       # Write bandwidth from this memory (bytes/s)
system.mem_ctrl.bw_total::.writebacks         1917836                       # Total bandwidth to/from this memory (bytes/s)
system.mem_ctrl.bw_total::.cpu.inst           3289452                       # Total bandwidth to/from this memory (bytes/s)
system.mem_ctrl.bw_total::.cpu.data        1897981588                       # Total bandwidth to/from this memory (bytes/s)
system.mem_ctrl.bw_total::total            1903188876                       # Total bandwidth to/from this memory (bytes/s)
system.mem_ctrl.avgPriority_.writebacks::samples       474.00                       # Average QoS priority value for accepted requests
system.mem_ctrl.avgPriority_.cpu.inst::samples       813.00                       # Average QoS priority value for accepted requests
system.mem_ctrl.avgPriority_.cpu.data::samples    469083.00                       # Average QoS priority value for accepted requests
system.mem_ctrl.priorityMinLatency       0.000000018750                       # per QoS priority minimum request to response latency (s)
system.mem_ctrl.priorityMaxLatency       0.000089710250                       # per QoS priority maximum request to response latency (s)
system.mem_ctrl.numReadWriteTurnArounds            28                       # Number of turnarounds from READ to WRITE
system.mem_ctrl.numWriteReadTurnArounds            28                       # Number of turnarounds from WRITE to READ
system.mem_ctrl.numStayReadState               851983                       # Number of times bus staying in READ state
system.mem_ctrl.numStayWriteState                 420                       # Number of times bus staying in WRITE state
system.mem_ctrl.readReqs                       469906                       # Number of read requests accepted
system.mem_ctrl.writeReqs                         474                       # Number of write requests accepted
system.mem_ctrl.readBursts                     469906                       # Number of DRAM read bursts, including those serviced by the write queue
system.mem_ctrl.writeBursts                       474                       # Number of DRAM write bursts, including those merged in the write queue
system.mem_ctrl.bytesReadDRAM                30073344                       # Total number of bytes read from DRAM
system.mem_ctrl.bytesReadWrQ                      640                       # Total number of bytes read from write queue
system.mem_ctrl.bytesWritten                    28672                       # Total number of bytes written to DRAM
system.mem_ctrl.bytesReadSys                 30073984                       # Total read bytes from the system interface side
system.mem_ctrl.bytesWrittenSys                 30336                       # Total written bytes from the system interface side
system.mem_ctrl.servicedByWrQ                      10                       # Number of DRAM read bursts serviced by the write queue
system.mem_ctrl.mergedWrBursts                      0                       # Number of DRAM write bursts merged with an existing one
system.mem_ctrl.neitherReadNorWriteReqs             0                       # Number of requests that are neither read nor write
system.mem_ctrl.perBankRdBursts::0              29359                       # Per bank write bursts
system.mem_ctrl.perBankRdBursts::1              29419                       # Per bank write bursts
system.mem_ctrl.perBankRdBursts::2              29652                       # Per bank write bursts
system.mem_ctrl.perBankRdBursts::3              29088                       # Per bank write bursts
system.mem_ctrl.perBankRdBursts::4              29275                       # Per bank write bursts
system.mem_ctrl.perBankRdBursts::5              29421                       # Per bank write bursts
system.mem_ctrl.perBankRdBursts::6              29425                       # Per bank write bursts
system.mem_ctrl.perBankRdBursts::7              29500                       # Per bank write bursts
system.mem_ctrl.perBankRdBursts::8              29372                       # Per bank write bursts
system.mem_ctrl.perBankRdBursts::9              29297                       # Per bank write bursts
system.mem_ctrl.perBankRdBursts::10             29471                       # Per bank write bursts
system.mem_ctrl.perBankRdBursts::11             29356                       # Per bank write bursts
system.mem_ctrl.perBankRdBursts::12             29290                       # Per bank write bursts
system.mem_ctrl.perBankRdBursts::13             29295                       # Per bank write bursts
system.mem_ctrl.perBankRdBursts::14             29281                       # Per bank write bursts
system.mem_ctrl.perBankRdBursts::15             29395                       # Per bank write bursts
system.mem_ctrl.perBankWrBursts::0                 89                       # Per bank write bursts
system.mem_ctrl.perBankWrBursts::1                115                       # Per bank write bursts
system.mem_ctrl.perBankWrBursts::2                 70                       # Per bank write bursts
system.mem_ctrl.perBankWrBursts::3                  2                       # Per bank write bursts
system.mem_ctrl.perBankWrBursts::4                 17                       # Per bank write bursts
system.mem_ctrl.perBankWrBursts::5                 91                       # Per bank write bursts
system.mem_ctrl.perBankWrBursts::6                 34                       # Per bank write bursts
system.mem_ctrl.perBankWrBursts::7                  0                       # Per bank write bursts
system.mem_ctrl.perBankWrBursts::8                  0                       # Per bank write bursts
system.mem_ctrl.perBankWrBursts::9                  0                       # Per bank write bursts
system.mem_ctrl.perBankWrBursts::10                30                       # Per bank write bursts
system.mem_ctrl.perBankWrBursts::11                 0                       # Per bank write bursts
system.mem_ctrl.perBankWrBursts::12                 0                       # Per bank write bursts
system.mem_ctrl.perBankWrBursts::13                 0                       # Per bank write bursts
system.mem_ctrl.perBankWrBursts::14                 0                       # Per bank write bursts
system.mem_ctrl.perBankWrBursts::15                 0                       # Per bank write bursts
system.mem_ctrl.numRdRetry                          0                       # Number of times read queue was full causing retry
system.mem_ctrl.numWrRetry                          0                       # Number of times write queue was full causing retry
system.mem_ctrl.totGap                    15817719000                       # Total gap between requests
system.mem_ctrl.readPktSize::0                      0                       # Read request sizes (log2)
system.mem_ctrl.readPktSize::1                      0                       # Read request sizes (log2)
system.mem_ctrl.readPktSize::2                      0                       # Read request sizes (log2)
system.mem_ctrl.readPktSize::3                      0                       # Read request sizes (log2)
system.mem_ctrl.readPktSize::4                      0                       # Read request sizes (log2)
system.mem_ctrl.readPktSize::5                      0                       # Read request sizes (log2)
system.mem_ctrl.readPktSize::6                 469906                       # Read request sizes (log2)
system.mem_ctrl.writePktSize::0                     0                       # Write request sizes (log2)
system.mem_ctrl.writePktSize::1                     0                       # Write request sizes (log2)
system.mem_ctrl.writePktSize::2                     0                       # Write request sizes (log2)
system.mem_ctrl.writePktSize::3                     0                       # Write request sizes (log2)
system.mem_ctrl.writePktSize::4                     0                       # Write request sizes (log2)
system.mem_ctrl.writePktSize::5                     0                       # Write request sizes (log2)
system.mem_ctrl.writePktSize::6                   474                       # Write request sizes (log2)
system.mem_ctrl.rdQLenPdf::0                   111501                       # What read queue length does an incoming req see
system.mem_ctrl.rdQLenPdf::1                   198216                       # What read queue length does an incoming req see
system.mem_ctrl.rdQLenPdf::2                   129726                       # What read queue length does an incoming req see
system.mem_ctrl.rdQLenPdf::3                    30450                       # What read queue length does an incoming req see
system.mem_ctrl.rdQLenPdf::4                        3                       # What read queue length does an incoming req see
system.mem_ctrl.rdQLenPdf::5                        0                       # What read queue length does an incoming req see
system.mem_ctrl.rdQLenPdf::6                        0                       # What read queue length does an incoming req see
system.mem_ctrl.rdQLenPdf::7                        0                       # What read queue length does an incoming req see
system.mem_ctrl.rdQLenPdf::8                        0                       # What read queue length does an incoming req see
system.mem_ctrl.rdQLenPdf::9                        0                       # What read queue length does an incoming req see
system.mem_ctrl.rdQLenPdf::10                       0                       # What read queue length does an incoming req see
system.mem_ctrl.rdQLenPdf::11                       0                       # What read queue length does an incoming req see
system.mem_ctrl.rdQLenPdf::12                       0                       # What read queue length does an incoming req see
system.mem_ctrl.rdQLenPdf::13                       0                       # What read queue length does an incoming req see
system.mem_ctrl.rdQLenPdf::14                       0                       # What read queue length does an incoming req see
system.mem_ctrl.rdQLenPdf::15                       0                       # What read queue length does an incoming req see
system.mem_ctrl.rdQLenPdf::16                       0                       # What read queue length does an incoming req see
system.mem_ctrl.rdQLenPdf::17                       0                       # What read queue length does an incoming req see
system.mem_ctrl.rdQLenPdf::18                       0                       # What read queue length does an incoming req see
system.mem_ctrl.rdQLenPdf::19                       0                       # What read queue length does an incoming req see
system.mem_ctrl.rdQLenPdf::20                       0                       # What read queue length does an incoming req see
system.mem_ctrl.rdQLenPdf::21                       0                       # What read queue length does an incoming req see
system.mem_ctrl.rdQLenPdf::22                       0                       # What read queue length does an incoming req see
system.mem_ctrl.rdQLenPdf::23                       0                       # What read queue length does an incoming req see
system.mem_ctrl.rdQLenPdf::24                       0                       # What read queue length does an incoming req see
system.mem_ctrl.rdQLenPdf::25                       0                       # What read queue length does an incoming req see
system.mem_ctrl.rdQLenPdf::26                       0                       # What read queue length does an incoming req see
system.mem_ctrl.rdQLenPdf::27                       0                       # What read queue length does an incoming req see
system.mem_ctrl.rdQLenPdf::28                       0                       # What read queue length does an incoming req see
system.mem_ctrl.rdQLenPdf::29                       0                       # What read queue length does an incoming req see
system.mem_ctrl.rdQLenPdf::30                       0                       # What read queue length does an incoming req see
system.mem_ctrl.rdQLenPdf::31                       0                       # What read queue length does an incoming req see
system.mem_ctrl.wrQLenPdf::0                        1                       # What write queue length does an incoming req see
system.mem_ctrl.wrQLenPdf::1                        1                       # What write queue length does an incoming req see
system.mem_ctrl.wrQLenPdf::2                        1                       # What write queue length does an incoming req see
system.mem_ctrl.wrQLenPdf::3                        1                       # What write queue length does an incoming req see
system.mem_ctrl.wrQLenPdf::4                        1                       # What write queue length does an incoming req see
system.mem_ctrl.wrQLenPdf::5                        1                       # What write queue length does an incoming req see
system.mem_ctrl.wrQLenPdf::6                        1                       # What write queue length does an incoming req see
system.mem_ctrl.wrQLenPdf::7                        1                       # What write queue length does an incoming req see
system.mem_ctrl.wrQLenPdf::8                        1                       # What write queue length does an incoming req see
system.mem_ctrl.wrQLenPdf::9                        1                       # What write queue length does an incoming req see
system.mem_ctrl.wrQLenPdf::10                       1                       # What write queue length does an incoming req see
system.mem_ctrl.wrQLenPdf::11                       1                       # What write queue length does an incoming req see
system.mem_ctrl.wrQLenPdf::12                       1                       # What write queue length does an incoming req see
system.mem_ctrl.wrQLenPdf::13                       1                       # What write queue length does an incoming req see
system.mem_ctrl.wrQLenPdf::14                       1                       # What write queue length does an incoming req see
system.mem_ctrl.wrQLenPdf::15                       1                       # What write queue length does an incoming req see
system.mem_ctrl.wrQLenPdf::16                       1                       # What write queue length does an incoming req see
system.mem_ctrl.wrQLenPdf::17                      21                       # What write queue length does an incoming req see
system.mem_ctrl.wrQLenPdf::18                      29                       # What write queue length does an incoming req see
system.mem_ctrl.wrQLenPdf::19                      30                       # What write queue length does an incoming req see
system.mem_ctrl.wrQLenPdf::20                      29                       # What write queue length does an incoming req see
system.mem_ctrl.wrQLenPdf::21                      30                       # What write queue length does an incoming req see
system.mem_ctrl.wrQLenPdf::22                      29                       # What write queue length does an incoming req see
system.mem_ctrl.wrQLenPdf::23                      29                       # What write queue length does an incoming req see
system.mem_ctrl.wrQLenPdf::24                      29                       # What write queue length does an incoming req see
system.mem_ctrl.wrQLenPdf::25                      30                       # What write queue length does an incoming req see
system.mem_ctrl.wrQLenPdf::26                      29                       # What write queue length does an incoming req see
system.mem_ctrl.wrQLenPdf::27                      28                       # What write queue length does an incoming req see
system.mem_ctrl.wrQLenPdf::28                      29                       # What write queue length does an incoming req see
system.mem_ctrl.wrQLenPdf::29                      28                       # What write queue length does an incoming req see
system.mem_ctrl.wrQLenPdf::30                      30                       # What write queue length does an incoming req see
system.mem_ctrl.wrQLenPdf::31                      28                       # What write queue length does an incoming req see
system.mem_ctrl.wrQLenPdf::32                      29                       # What write queue length does an incoming req see
system.mem_ctrl.wrQLenPdf::33                       0                       # What write queue length does an incoming req see
system.mem_ctrl.wrQLenPdf::34                       0                       # What write queue length does an incoming req see
system.mem_ctrl.wrQLenPdf::35                       0                       # What write queue length does an incoming req see
system.mem_ctrl.wrQLenPdf::36                       0                       # What write queue length does an incoming req see
system.mem_ctrl.wrQLenPdf::37                       0                       # What write queue length does an incoming req see
system.mem_ctrl.wrQLenPdf::38                       0                       # What write queue length does an incoming req see
system.mem_ctrl.wrQLenPdf::39                       0                       # What write queue length does an incoming req see
system.mem_ctrl.wrQLenPdf::40                       0                       # What write queue length does an incoming req see
system.mem_ctrl.wrQLenPdf::41                       0                       # What write queue length does an incoming req see
system.mem_ctrl.wrQLenPdf::42                       0                       # What write queue length does an incoming req see
system.mem_ctrl.wrQLenPdf::43                       0                       # What write queue length does an incoming req see
system.mem_ctrl.wrQLenPdf::44                       0                       # What write queue length does an incoming req see
system.mem_ctrl.wrQLenPdf::45                       0                       # What write queue length does an incoming req see
system.mem_ctrl.wrQLenPdf::46                       0                       # What write queue length does an incoming req see
system.mem_ctrl.wrQLenPdf::47                       0                       # What write queue length does an incoming req see
system.mem_ctrl.wrQLenPdf::48                       0                       # What write queue length does an incoming req see
system.mem_ctrl.wrQLenPdf::49                       0                       # What write queue length does an incoming req see
system.mem_ctrl.wrQLenPdf::50                       0                       # What write queue length does an incoming req see
system.mem_ctrl.wrQLenPdf::51                       0                       # What write queue length does an incoming req see
system.mem_ctrl.wrQLenPdf::52                       0                       # What write queue length does an incoming req see
system.mem_ctrl.wrQLenPdf::53                       0                       # What write queue length does an incoming req see
system.mem_ctrl.wrQLenPdf::54                       0                       # What write queue length does an incoming req see
system.mem_ctrl.wrQLenPdf::55                       0                       # What write queue length does an incoming req see
system.mem_ctrl.wrQLenPdf::56                       0                       # What write queue length does an incoming req see
system.mem_ctrl.wrQLenPdf::57                       0                       # What write queue length does an incoming req see
system.mem_ctrl.wrQLenPdf::58                       0                       # What write queue length does an incoming req see
system.mem_ctrl.wrQLenPdf::59                       0                       # What write queue length does an incoming req see
system.mem_ctrl.wrQLenPdf::60                       0                       # What write queue length does an incoming req see
system.mem_ctrl.wrQLenPdf::61                       0                       # What write queue length does an incoming req see
system.mem_ctrl.wrQLenPdf::62                       0                       # What write queue length does an incoming req see
system.mem_ctrl.wrQLenPdf::63                       0                       # What write queue length does an incoming req see
system.mem_ctrl.bytesPerActivate::samples       443727                       # Bytes accessed per row activation
system.mem_ctrl.bytesPerActivate::mean      67.837026                       # Bytes accessed per row activation
system.mem_ctrl.bytesPerActivate::gmean     66.458585                       # Bytes accessed per row activation
system.mem_ctrl.bytesPerActivate::stdev     22.234057                       # Bytes accessed per row activation
system.mem_ctrl.bytesPerActivate::0-127        421312     94.95%     94.95% # Bytes accessed per row activation
system.mem_ctrl.bytesPerActivate::128-255        21822      4.92%     99.87% # Bytes accessed per row activation
system.mem_ctrl.bytesPerActivate::256-383          361      0.08%     99.95% # Bytes accessed per row activation
system.mem_ctrl.bytesPerActivate::384-511           74      0.02%     99.96% # Bytes accessed per row activation
system.mem_ctrl.bytesPerActivate::512-639           51      0.01%     99.98% # Bytes accessed per row activation
system.mem_ctrl.bytesPerActivate::640-767           20      0.00%     99.98% # Bytes accessed per row activation
system.mem_ctrl.bytesPerActivate::768-895           12      0.00%     99.98% # Bytes accessed per row activation
system.mem_ctrl.bytesPerActivate::896-1023            8      0.00%     99.98% # Bytes accessed per row activation
system.mem_ctrl.bytesPerActivate::1024-1151           67      0.02%    100.00% # Bytes accessed per row activation
system.mem_ctrl.bytesPerActivate::total        443727                       # Bytes accessed per row activation
system.mem_ctrl.rdPerTurnAround::samples           28                       # Reads before turning the bus around for writes
system.mem_ctrl.rdPerTurnAround::mean      294.035714                       # Reads before turning the bus around for writes
system.mem_ctrl.rdPerTurnAround::gmean     171.725028                       # Reads before turning the bus around for writes
system.mem_ctrl.rdPerTurnAround::stdev     620.419063                       # Reads before turning the bus around for writes
system.mem_ctrl.rdPerTurnAround::0-127             10     35.71%     35.71% # Reads before turning the bus around for writes
system.mem_ctrl.rdPerTurnAround::128-255           13     46.43%     82.14% # Reads before turning the bus around for writes
system.mem_ctrl.rdPerTurnAround::256-383            3     10.71%     92.86% # Reads before turning the bus around for writes
system.mem_ctrl.rdPerTurnAround::768-895            1      3.57%     96.43% # Reads before turning the bus around for writes
system.mem_ctrl.rdPerTurnAround::3328-3455            1      3.57%    100.00% # Reads before turning the bus around for writes
system.mem_ctrl.rdPerTurnAround::total             28                       # Reads before turning the bus around for writes
system.mem_ctrl.wrPerTurnAround::samples           28                       # Writes before turning the bus around for reads
system.mem_ctrl.wrPerTurnAround::mean              16                       # Writes before turning the bus around for reads
system.mem_ctrl.wrPerTurnAround::gmean      16.000000                       # Writes before turning the bus around for reads
system.mem_ctrl.wrPerTurnAround::16                28    100.00%    100.00% # Writes before turning the bus around for reads
system.mem_ctrl.wrPerTurnAround::total             28                       # Writes before turning the bus around for reads
system.mem_ctrl.masterReadBytes::.cpu.inst        52032                       # Per-master bytes read from memory
system.mem_ctrl.masterReadBytes::.cpu.data     30021312                       # Per-master bytes read from memory
system.mem_ctrl.masterWriteBytes::.writebacks        28672                       # Per-master bytes write to memory
system.mem_ctrl.masterReadRate::.cpu.inst 3289452.264346483164                       # Per-master bytes read from memory rate (Bytes/sec)
system.mem_ctrl.masterReadRate::.cpu.data 1897941127.326496124268                       # Per-master bytes read from memory rate (Bytes/sec)
system.mem_ctrl.masterWriteRate::.writebacks 1812637.902124507353                       # Per-master bytes write to memory rate (Bytes/sec)
system.mem_ctrl.masterReadAccesses::.cpu.inst          813                       # Per-master read serviced memory accesses
system.mem_ctrl.masterReadAccesses::.cpu.data       469093                       # Per-master read serviced memory accesses
system.mem_ctrl.masterWriteAccesses::.writebacks          474                       # Per-master write serviced memory accesses
system.mem_ctrl.masterReadTotalLat::.cpu.inst     25970000                       # Per-master read total memory access latency
system.mem_ctrl.masterReadTotalLat::.cpu.data  25951037750                       # Per-master read total memory access latency
system.mem_ctrl.masterWriteTotalLat::.writebacks   4073510000                       # Per-master write total memory access latency
system.mem_ctrl.masterReadAvgLat::.cpu.inst     31943.42                       # Per-master read average memory access latency
system.mem_ctrl.masterReadAvgLat::.cpu.data     55321.73                       # Per-master read average memory access latency
system.mem_ctrl.masterWriteAvgLat::.writebacks   8593902.95                       # Per-master write average memory access latency
system.mem_ctrl.totQLat                   17166457750                       # Total ticks spent queuing
system.mem_ctrl.totMemAccLat              25977007750                       # Total ticks spent from burst creation until serviced by the DRAM
system.mem_ctrl.totBusLat                  2349480000                       # Total ticks spent in databus transfers
system.mem_ctrl.avgQLat                      36532.46                       # Average queueing delay per DRAM burst
system.mem_ctrl.avgBusLat                     5000.00                       # Average bus latency per DRAM burst
system.mem_ctrl.avgMemAccLat                 55282.46                       # Average memory access latency per DRAM burst
system.mem_ctrl.avgRdBW                       1901.23                       # Average DRAM read bandwidth in MiByte/s
system.mem_ctrl.avgWrBW                          1.81                       # Average achieved write bandwidth in MiByte/s
system.mem_ctrl.avgRdBWSys                    1901.27                       # Average system read bandwidth in MiByte/s
system.mem_ctrl.avgWrBWSys                       1.92                       # Average system write bandwidth in MiByte/s
system.mem_ctrl.peakBW                       12800.00                       # Theoretical peak bandwidth in MiByte/s
system.mem_ctrl.busUtil                         14.87                       # Data bus utilization in percentage
system.mem_ctrl.busUtilRead                     14.85                       # Data bus utilization in percentage for reads
system.mem_ctrl.busUtilWrite                     0.01                       # Data bus utilization in percentage for writes
system.mem_ctrl.avgRdQLen                        2.58                       # Average read queue length when enqueuing
system.mem_ctrl.avgWrQLen                       25.65                       # Average write queue length when enqueuing
system.mem_ctrl.readRowHits                     26243                       # Number of row buffer hits during reads
system.mem_ctrl.writeRowHits                      364                       # Number of row buffer hits during writes
system.mem_ctrl.readRowHitRate                   5.58                       # Row buffer hit rate for reads
system.mem_ctrl.writeRowHitRate                 76.79                       # Row buffer hit rate for writes
system.mem_ctrl.avgGap                       33627.53                       # Average gap between requests
system.mem_ctrl.pageHitRate                      5.66                       # Row buffer hit rate, read and write combined
system.mem_ctrl_0.actEnergy                1584737280                       # Energy for activate commands per rank (pJ)
system.mem_ctrl_0.preEnergy                 842281275                       # Energy for precharge commands per rank (pJ)
system.mem_ctrl_0.readEnergy               1678892460                       # Energy for read commands per rank (pJ)
system.mem_ctrl_0.writeEnergy                 2181960                       # Energy for write commands per rank (pJ)
system.mem_ctrl_0.refreshEnergy          1248333840.000000                       # Energy for refresh commands per rank (pJ)
system.mem_ctrl_0.actBackEnergy            4209843870                       # Energy for active background per rank (pJ)
system.mem_ctrl_0.preBackEnergy              25864800                       # Energy for precharge background per rank (pJ)
system.mem_ctrl_0.actPowerDownEnergy       2962923840                       # Energy for active power-down per rank (pJ)
system.mem_ctrl_0.prePowerDownEnergy          7956960                       # Energy for precharge power-down per rank (pJ)
system.mem_ctrl_0.selfRefreshEnergy                 0                       # Energy for self refresh per rank (pJ)
system.mem_ctrl_0.totalEnergy             12563016285                       # Total energy per rank (pJ)
system.mem_ctrl_0.averagePower             794.231288                       # Core power per rank (mW)
system.mem_ctrl_0.totalIdleTime            6518718250                       # Total Idle time Per DRAM Rank
system.mem_ctrl_0.memoryStateTime::IDLE       7817000                       # Time in different power states
system.mem_ctrl_0.memoryStateTime::REF      528060000                       # Time in different power states
system.mem_ctrl_0.memoryStateTime::SREF             0                       # Time in different power states
system.mem_ctrl_0.memoryStateTime::PRE_PDN     20680000                       # Time in different power states
system.mem_ctrl_0.memoryStateTime::ACT     8763171500                       # Time in different power states
system.mem_ctrl_0.memoryStateTime::ACT_PDN   6498102500                       # Time in different power states
system.mem_ctrl_1.actEnergy                1583544900                       # Energy for activate commands per rank (pJ)
system.mem_ctrl_1.preEnergy                 841662690                       # Energy for precharge commands per rank (pJ)
system.mem_ctrl_1.readEnergy               1676164980                       # Energy for read commands per rank (pJ)
system.mem_ctrl_1.writeEnergy                  156600                       # Energy for write commands per rank (pJ)
system.mem_ctrl_1.refreshEnergy          1248333840.000000                       # Energy for refresh commands per rank (pJ)
system.mem_ctrl_1.actBackEnergy            4213108830                       # Energy for active background per rank (pJ)
system.mem_ctrl_1.preBackEnergy              26879040                       # Energy for precharge background per rank (pJ)
system.mem_ctrl_1.actPowerDownEnergy       2954956950                       # Energy for active power-down per rank (pJ)
system.mem_ctrl_1.prePowerDownEnergy         10902240                       # Energy for precharge power-down per rank (pJ)
system.mem_ctrl_1.selfRefreshEnergy                 0                       # Energy for self refresh per rank (pJ)
system.mem_ctrl_1.totalEnergy             12555710070                       # Total energy per rank (pJ)
system.mem_ctrl_1.averagePower             793.769390                       # Core power per rank (mW)
system.mem_ctrl_1.totalIdleTime            6508846750                       # Total Idle time Per DRAM Rank
system.mem_ctrl_1.memoryStateTime::IDLE      10427250                       # Time in different power states
system.mem_ctrl_1.memoryStateTime::REF      528060000                       # Time in different power states
system.mem_ctrl_1.memoryStateTime::SREF             0                       # Time in different power states
system.mem_ctrl_1.memoryStateTime::PRE_PDN     28344750                       # Time in different power states
system.mem_ctrl_1.memoryStateTime::ACT     8770075500                       # Time in different power states
system.mem_ctrl_1.memoryStateTime::ACT_PDN   6480923500                       # Time in different power states
system.pwrStateResidencyTicks::UNDEFINED  15817831000                       # Cumulative time (in ticks) in various power states
system.cpu.branchPred.lookups                  530791                       # Number of BP lookups
system.cpu.branchPred.condPredicted            530791                       # Number of conditional branches predicted
system.cpu.branchPred.condIncorrect              2742                       # Number of conditional branches incorrect
system.cpu.branchPred.BTBLookups               527590                       # Number of BTB lookups
system.cpu.branchPred.BTBHits                       0                       # Number of BTB hits
system.cpu.branchPred.BTBCorrect                    0                       # Number of correct BTB predictions (this stat may not work properly.
system.cpu.branchPred.BTBHitPct              0.000000                       # BTB Hit Percentage
system.cpu.branchPred.usedRAS                    1440                       # Number of times the RAS was used to get a target.
system.cpu.branchPred.RASInCorrect                365                       # Number of incorrect RAS predictions.
system.cpu.branchPred.indirectLookups          527590                       # Number of indirect predictor lookups.
system.cpu.branchPred.indirectHits             508208                       # Number of indirect target hits.
system.cpu.branchPred.indirectMisses            19382                       # Number of indirect misses.
system.cpu.branchPredindirectMispredicted         1799                       # Number of mispredicted indirect branches.
system.cpu.dtb.walker.pwrStateResidencyTicks::UNDEFINED  15817831000                       # Cumulative time (in ticks) in various power states
system.cpu.dtb.rdAccesses                     4116095                       # TLB accesses on read requests
system.cpu.dtb.wrAccesses                       13138                       # TLB accesses on write requests
system.cpu.dtb.rdMisses                        439157                       # TLB misses on read requests
system.cpu.dtb.wrMisses                            76                       # TLB misses on write requests
system.cpu.apic_clk_domain.clock                16000                       # Clock period in ticks
system.cpu.interrupts.pwrStateResidencyTicks::UNDEFINED  15817831000                       # Cumulative time (in ticks) in various power states
system.cpu.itb.walker.pwrStateResidencyTicks::UNDEFINED  15817831000                       # Cumulative time (in ticks) in various power states
system.cpu.itb.rdAccesses                           0                       # TLB accesses on read requests
system.cpu.itb.wrAccesses                       17345                       # TLB accesses on write requests
system.cpu.itb.rdMisses                             0                       # TLB misses on read requests
system.cpu.itb.wrMisses                           116                       # TLB misses on write requests
system.cpu.workload.numSyscalls                    27                       # Number of system calls
system.cpu.pwrStateResidencyTicks::ON     15817831000                       # Cumulative time (in ticks) in various power states
system.cpu.numCycles                         15817832                       # number of cpu cycles simulated
system.cpu.numWorkItemsStarted                      0                       # number of work items this cpu started
system.cpu.numWorkItemsCompleted                    0                       # number of work items this cpu completed
system.cpu.fetch.icacheStallCycles              40825                       # Number of cycles fetch is stalled on an Icache miss
system.cpu.fetch.Insts                        5658693                       # Number of instructions fetch has processed
system.cpu.fetch.Branches                      530791                       # Number of branches that fetch encountered
system.cpu.fetch.predictedBranches             509648                       # Number of branches that fetch has predicted taken
system.cpu.fetch.Cycles                      15738488                       # Number of cycles fetch has run and was not squashing or blocked
system.cpu.fetch.SquashCycles                    5578                       # Number of cycles fetch has spent squashing
system.cpu.fetch.TlbCycles                        106                       # Number of cycles fetch has spent waiting for tlb
system.cpu.fetch.MiscStallCycles                   19                       # Number of cycles fetch has spent waiting on interrupts, or bad addresses, or out of MSHRs
system.cpu.fetch.PendingTrapStallCycles           378                       # Number of stall cycles due to pending traps
system.cpu.fetch.PendingQuiesceStallCycles           12                       # Number of stall cycles due to pending quiesce instructions
system.cpu.fetch.IcacheWaitRetryStallCycles           31                       # Number of stall cycles due to full MSHR
system.cpu.fetch.CacheLines                     17304                       # Number of cache lines fetched
system.cpu.fetch.IcacheSquashes                  1156                       # Number of outstanding Icache misses that were squashed
system.cpu.fetch.rateDist::samples           15782648                       # Number of instructions fetched each cycle (Total)
system.cpu.fetch.rateDist::mean              0.557236                       # Number of instructions fetched each cycle (Total)
system.cpu.fetch.rateDist::stdev             1.908346                       # Number of instructions fetched each cycle (Total)
system.cpu.fetch.rateDist::underflows               0      0.00%      0.00% # Number of instructions fetched each cycle (Total)
system.cpu.fetch.rateDist::0                 14237308     90.21%     90.21% # Number of instructions fetched each cycle (Total)
system.cpu.fetch.rateDist::1                   262601      1.66%     91.87% # Number of instructions fetched each cycle (Total)
system.cpu.fetch.rateDist::2                   100544      0.64%     92.51% # Number of instructions fetched each cycle (Total)
system.cpu.fetch.rateDist::3                    79401      0.50%     93.01% # Number of instructions fetched each cycle (Total)
system.cpu.fetch.rateDist::4                    67324      0.43%     93.44% # Number of instructions fetched each cycle (Total)
system.cpu.fetch.rateDist::5                    65804      0.42%     93.86% # Number of instructions fetched each cycle (Total)
system.cpu.fetch.rateDist::6                    80244      0.51%     94.36% # Number of instructions fetched each cycle (Total)
system.cpu.fetch.rateDist::7                   102386      0.65%     95.01% # Number of instructions fetched each cycle (Total)
system.cpu.fetch.rateDist::8                   787036      4.99%    100.00% # Number of instructions fetched each cycle (Total)
system.cpu.fetch.rateDist::overflows                0      0.00%    100.00% # Number of instructions fetched each cycle (Total)
system.cpu.fetch.rateDist::min_value                0                       # Number of instructions fetched each cycle (Total)
system.cpu.fetch.rateDist::max_value                8                       # Number of instructions fetched each cycle (Total)
system.cpu.fetch.rateDist::total             15782648                       # Number of instructions fetched each cycle (Total)
system.cpu.fetch.branchRate                  0.033556                       # Number of branch fetches per cycle
system.cpu.fetch.rate                        0.357741                       # Number of inst fetches per cycle
system.cpu.decode.IdleCycles                   336602                       # Number of cycles decode is idle
system.cpu.decode.BlockedCycles              14343230                       # Number of cycles decode is blocked
system.cpu.decode.RunCycles                    425017                       # Number of cycles decode is running
system.cpu.decode.UnblockCycles                675010                       # Number of cycles decode is unblocking
system.cpu.decode.SquashCycles                   2789                       # Number of cycles decode is squashing
system.cpu.decode.DecodedInsts                8770526                       # Number of instructions handled by decode
system.cpu.rename.SquashCycles                   2789                       # Number of cycles rename is squashing
system.cpu.rename.IdleCycles                   556370                       # Number of cycles rename is idle
system.cpu.rename.BlockCycles                13099436                       # Number of cycles rename is blocking
system.cpu.rename.serializeStallCycles           2210                       # count of cycles rename stalled for serializing inst
system.cpu.rename.RunCycles                    615144                       # Number of cycles rename is running
system.cpu.rename.UnblockCycles               1506699                       # Number of cycles rename is unblocking
system.cpu.rename.RenamedInsts                8759822                       # Number of instructions processed by rename
system.cpu.rename.ROBFullEvents               1123874                       # Number of times rename has blocked due to ROB full
system.cpu.rename.IQFullEvents                   7477                       # Number of times rename has blocked due to IQ full
system.cpu.rename.LQFullEvents                    505                       # Number of times rename has blocked due to LQ full
system.cpu.rename.SQFullEvents                  16356                       # Number of times rename has blocked due to SQ full
system.cpu.rename.RenamedOperands            16312601                       # Number of destination operands rename has renamed
system.cpu.rename.RenameLookups              20162685                       # Number of register rename lookups that rename has made
system.cpu.rename.int_rename_lookups         13394560                       # Number of integer rename lookups
system.cpu.rename.fp_rename_lookups             11567                       # Number of floating rename lookups
system.cpu.rename.CommittedMaps              16177455                       # Number of HB maps that are committed
system.cpu.rename.UndoneMaps                   135146                       # Number of HB maps that are undone due to squashing
system.cpu.rename.serializingInsts                 94                       # count of serializing insts renamed
system.cpu.rename.tempSerializingInsts             65                       # count of temporary serializing insts renamed
system.cpu.rename.skidInsts                   5268526                       # count of insts added to the skid buffer
system.cpu.memDep0.insertedLoads               534627                       # Number of loads inserted to the mem dependence unit.
system.cpu.memDep0.insertedStores               15884                       # Number of stores inserted to the mem dependence unit.
system.cpu.memDep0.conflictingLoads               870                       # Number of conflicting loads.
system.cpu.memDep0.conflictingStores              580                       # Number of conflicting stores.
system.cpu.iq.iqInstsAdded                    8740187                       # Number of instructions added to the IQ (excludes non-spec)
system.cpu.iq.iqNonSpecInstsAdded                  80                       # Number of non-speculative instructions added to the IQ
system.cpu.iq.iqInstsIssued                  12292835                       # Number of instructions issued
system.cpu.iq.iqSquashedInstsIssued               683                       # Number of squashed instructions issued
system.cpu.iq.iqSquashedInstsExamined           96164                       # Number of squashed instructions iterated over during squash; mainly for profiling
system.cpu.iq.iqSquashedOperandsExamined       141868                       # Number of squashed operands that are examined and possibly removed from graph
system.cpu.iq.iqSquashedNonSpecRemoved             53                       # Number of squashed non-spec instructions that were removed
system.cpu.iq.issued_per_cycle::samples      15782648                       # Number of insts issued each cycle
system.cpu.iq.issued_per_cycle::mean         0.778883                       # Number of insts issued each cycle
system.cpu.iq.issued_per_cycle::stdev        1.414823                       # Number of insts issued each cycle
system.cpu.iq.issued_per_cycle::underflows            0      0.00%      0.00% # Number of insts issued each cycle
system.cpu.iq.issued_per_cycle::0            10339479     65.51%     65.51% # Number of insts issued each cycle
system.cpu.iq.issued_per_cycle::1             2680321     16.98%     82.49% # Number of insts issued each cycle
system.cpu.iq.issued_per_cycle::2              848174      5.37%     87.87% # Number of insts issued each cycle
system.cpu.iq.issued_per_cycle::3              616935      3.91%     91.78% # Number of insts issued each cycle
system.cpu.iq.issued_per_cycle::4              713680      4.52%     96.30% # Number of insts issued each cycle
system.cpu.iq.issued_per_cycle::5              424133      2.69%     98.99% # Number of insts issued each cycle
system.cpu.iq.issued_per_cycle::6               62879      0.40%     99.39% # Number of insts issued each cycle
system.cpu.iq.issued_per_cycle::7               63674      0.40%     99.79% # Number of insts issued each cycle
system.cpu.iq.issued_per_cycle::8               33373      0.21%    100.00% # Number of insts issued each cycle
system.cpu.iq.issued_per_cycle::overflows            0      0.00%    100.00% # Number of insts issued each cycle
system.cpu.iq.issued_per_cycle::min_value            0                       # Number of insts issued each cycle
system.cpu.iq.issued_per_cycle::max_value            8                       # Number of insts issued each cycle
system.cpu.iq.issued_per_cycle::total        15782648                       # Number of insts issued each cycle
system.cpu.iq.fu_full::No_OpClass                   0      0.00%      0.00% # attempts to use FU when none available
system.cpu.iq.fu_full::IntAlu                    2972      0.59%      0.59% # attempts to use FU when none available
system.cpu.iq.fu_full::IntMult                      0      0.00%      0.59% # attempts to use FU when none available
system.cpu.iq.fu_full::IntDiv                       0      0.00%      0.59% # attempts to use FU when none available
system.cpu.iq.fu_full::FloatAdd                     0      0.00%      0.59% # attempts to use FU when none available
system.cpu.iq.fu_full::FloatCmp                     0      0.00%      0.59% # attempts to use FU when none available
system.cpu.iq.fu_full::FloatCvt                     0      0.00%      0.59% # attempts to use FU when none available
system.cpu.iq.fu_full::FloatMult                    0      0.00%      0.59% # attempts to use FU when none available
system.cpu.iq.fu_full::FloatMultAcc                 0      0.00%      0.59% # attempts to use FU when none available
system.cpu.iq.fu_full::FloatDiv                     0      0.00%      0.59% # attempts to use FU when none available
system.cpu.iq.fu_full::FloatMisc                    0      0.00%      0.59% # attempts to use FU when none available
system.cpu.iq.fu_full::FloatSqrt                    0      0.00%      0.59% # attempts to use FU when none available
system.cpu.iq.fu_full::SimdAdd                      1      0.00%      0.60% # attempts to use FU when none available
system.cpu.iq.fu_full::SimdAddAcc                   0      0.00%      0.60% # attempts to use FU when none available
system.cpu.iq.fu_full::SimdAlu                     16      0.00%      0.60% # attempts to use FU when none available
system.cpu.iq.fu_full::SimdCmp                      0      0.00%      0.60% # attempts to use FU when none available
system.cpu.iq.fu_full::SimdCvt                     19      0.00%      0.60% # attempts to use FU when none available
system.cpu.iq.fu_full::SimdMisc                     3      0.00%      0.60% # attempts to use FU when none available
system.cpu.iq.fu_full::SimdMult                     0      0.00%      0.60% # attempts to use FU when none available
system.cpu.iq.fu_full::SimdMultAcc                  0      0.00%      0.60% # attempts to use FU when none available
system.cpu.iq.fu_full::SimdShift                    0      0.00%      0.60% # attempts to use FU when none available
system.cpu.iq.fu_full::SimdShiftAcc                 0      0.00%      0.60% # attempts to use FU when none available
system.cpu.iq.fu_full::SimdSqrt                     0      0.00%      0.60% # attempts to use FU when none available
system.cpu.iq.fu_full::SimdFloatAdd                 0      0.00%      0.60% # attempts to use FU when none available
system.cpu.iq.fu_full::SimdFloatAlu                 0      0.00%      0.60% # attempts to use FU when none available
system.cpu.iq.fu_full::SimdFloatCmp                 0      0.00%      0.60% # attempts to use FU when none available
system.cpu.iq.fu_full::SimdFloatCvt                 0      0.00%      0.60% # attempts to use FU when none available
system.cpu.iq.fu_full::SimdFloatDiv                 0      0.00%      0.60% # attempts to use FU when none available
system.cpu.iq.fu_full::SimdFloatMisc                0      0.00%      0.60% # attempts to use FU when none available
system.cpu.iq.fu_full::SimdFloatMult                0      0.00%      0.60% # attempts to use FU when none available
system.cpu.iq.fu_full::SimdFloatMultAcc             0      0.00%      0.60% # attempts to use FU when none available
system.cpu.iq.fu_full::SimdFloatSqrt                0      0.00%      0.60% # attempts to use FU when none available
system.cpu.iq.fu_full::SimdAes                      0      0.00%      0.60% # attempts to use FU when none available
system.cpu.iq.fu_full::SimdAesMix                   0      0.00%      0.60% # attempts to use FU when none available
system.cpu.iq.fu_full::SimdSha1Hash                 0      0.00%      0.60% # attempts to use FU when none available
system.cpu.iq.fu_full::SimdSha1Hash2                0      0.00%      0.60% # attempts to use FU when none available
system.cpu.iq.fu_full::SimdSha256Hash               0      0.00%      0.60% # attempts to use FU when none available
system.cpu.iq.fu_full::SimdSha256Hash2              0      0.00%      0.60% # attempts to use FU when none available
system.cpu.iq.fu_full::SimdShaSigma2                0      0.00%      0.60% # attempts to use FU when none available
system.cpu.iq.fu_full::SimdShaSigma3                0      0.00%      0.60% # attempts to use FU when none available
system.cpu.iq.fu_full::MemRead                 496184     99.31%     99.91% # attempts to use FU when none available
system.cpu.iq.fu_full::MemWrite                   401      0.08%     99.99% # attempts to use FU when none available
system.cpu.iq.fu_full::FloatMemRead                12      0.00%    100.00% # attempts to use FU when none available
system.cpu.iq.fu_full::FloatMemWrite               19      0.00%    100.00% # attempts to use FU when none available
system.cpu.iq.fu_full::IprAccess                    0      0.00%    100.00% # attempts to use FU when none available
system.cpu.iq.fu_full::InstPrefetch                 0      0.00%    100.00% # attempts to use FU when none available
system.cpu.iq.FU_type_0::No_OpClass              2208      0.02%      0.02% # Type of FU issued
system.cpu.iq.FU_type_0::IntAlu               8155426     66.34%     66.36% # Type of FU issued
system.cpu.iq.FU_type_0::IntMult                   25      0.00%     66.36% # Type of FU issued
system.cpu.iq.FU_type_0::IntDiv                  1155      0.01%     66.37% # Type of FU issued
system.cpu.iq.FU_type_0::FloatAdd                 133      0.00%     66.37% # Type of FU issued
system.cpu.iq.FU_type_0::FloatCmp                   0      0.00%     66.37% # Type of FU issued
system.cpu.iq.FU_type_0::FloatCvt                   0      0.00%     66.37% # Type of FU issued
system.cpu.iq.FU_type_0::FloatMult                  0      0.00%     66.37% # Type of FU issued
system.cpu.iq.FU_type_0::FloatMultAcc               0      0.00%     66.37% # Type of FU issued
system.cpu.iq.FU_type_0::FloatDiv                   0      0.00%     66.37% # Type of FU issued
system.cpu.iq.FU_type_0::FloatMisc                  0      0.00%     66.37% # Type of FU issued
system.cpu.iq.FU_type_0::FloatSqrt                  0      0.00%     66.37% # Type of FU issued
system.cpu.iq.FU_type_0::SimdAdd                  380      0.00%     66.37% # Type of FU issued
system.cpu.iq.FU_type_0::SimdAddAcc                 0      0.00%     66.37% # Type of FU issued
system.cpu.iq.FU_type_0::SimdAlu                  797      0.01%     66.38% # Type of FU issued
system.cpu.iq.FU_type_0::SimdCmp                    6      0.00%     66.38% # Type of FU issued
system.cpu.iq.FU_type_0::SimdCvt                  937      0.01%     66.39% # Type of FU issued
system.cpu.iq.FU_type_0::SimdMisc                 579      0.00%     66.39% # Type of FU issued
system.cpu.iq.FU_type_0::SimdMult                   0      0.00%     66.39% # Type of FU issued
system.cpu.iq.FU_type_0::SimdMultAcc                0      0.00%     66.39% # Type of FU issued
system.cpu.iq.FU_type_0::SimdShift                206      0.00%     66.40% # Type of FU issued
system.cpu.iq.FU_type_0::SimdShiftAcc               0      0.00%     66.40% # Type of FU issued
system.cpu.iq.FU_type_0::SimdSqrt                   0      0.00%     66.40% # Type of FU issued
system.cpu.iq.FU_type_0::SimdFloatAdd               0      0.00%     66.40% # Type of FU issued
system.cpu.iq.FU_type_0::SimdFloatAlu               0      0.00%     66.40% # Type of FU issued
system.cpu.iq.FU_type_0::SimdFloatCmp               0      0.00%     66.40% # Type of FU issued
system.cpu.iq.FU_type_0::SimdFloatCvt               0      0.00%     66.40% # Type of FU issued
system.cpu.iq.FU_type_0::SimdFloatDiv               0      0.00%     66.40% # Type of FU issued
system.cpu.iq.FU_type_0::SimdFloatMisc              0      0.00%     66.40% # Type of FU issued
system.cpu.iq.FU_type_0::SimdFloatMult              0      0.00%     66.40% # Type of FU issued
system.cpu.iq.FU_type_0::SimdFloatMultAcc            0      0.00%     66.40% # Type of FU issued
system.cpu.iq.FU_type_0::SimdFloatSqrt              0      0.00%     66.40% # Type of FU issued
system.cpu.iq.FU_type_0::SimdAes                    0      0.00%     66.40% # Type of FU issued
system.cpu.iq.FU_type_0::SimdAesMix                 0      0.00%     66.40% # Type of FU issued
system.cpu.iq.FU_type_0::SimdSha1Hash               0      0.00%     66.40% # Type of FU issued
system.cpu.iq.FU_type_0::SimdSha1Hash2              0      0.00%     66.40% # Type of FU issued
system.cpu.iq.FU_type_0::SimdSha256Hash             0      0.00%     66.40% # Type of FU issued
system.cpu.iq.FU_type_0::SimdSha256Hash2            0      0.00%     66.40% # Type of FU issued
system.cpu.iq.FU_type_0::SimdShaSigma2              0      0.00%     66.40% # Type of FU issued
system.cpu.iq.FU_type_0::SimdShaSigma3              0      0.00%     66.40% # Type of FU issued
system.cpu.iq.FU_type_0::MemRead              4115916     33.48%     99.88% # Type of FU issued
system.cpu.iq.FU_type_0::MemWrite               13220      0.11%     99.98% # Type of FU issued
system.cpu.iq.FU_type_0::FloatMemRead            1457      0.01%    100.00% # Type of FU issued
system.cpu.iq.FU_type_0::FloatMemWrite            390      0.00%    100.00% # Type of FU issued
system.cpu.iq.FU_type_0::IprAccess                  0      0.00%    100.00% # Type of FU issued
system.cpu.iq.FU_type_0::InstPrefetch               0      0.00%    100.00% # Type of FU issued
system.cpu.iq.FU_type_0::total               12292835                       # Type of FU issued
system.cpu.iq.rate                           0.777150                       # Inst issue rate
system.cpu.iq.fu_busy_cnt                      499627                       # FU busy when requested
system.cpu.iq.fu_busy_rate                   0.040644                       # FU busy rate (busy events/executed inst)
system.cpu.iq.int_inst_queue_reads           40858622                       # Number of integer instruction queue reads
system.cpu.iq.int_inst_queue_writes           8826368                       # Number of integer instruction queue writes
system.cpu.iq.int_inst_queue_wakeup_accesses      8692646                       # Number of integer instruction queue wakeup accesses
system.cpu.iq.fp_inst_queue_reads               10006                       # Number of floating instruction queue reads
system.cpu.iq.fp_inst_queue_writes              10100                       # Number of floating instruction queue writes
system.cpu.iq.fp_inst_queue_wakeup_accesses         4476                       # Number of floating instruction queue wakeup accesses
system.cpu.iq.vec_inst_queue_reads                  0                       # Number of vector instruction queue reads
system.cpu.iq.vec_inst_queue_writes                 0                       # Number of vector instruction queue writes
system.cpu.iq.vec_inst_queue_wakeup_accesses            0                       # Number of vector instruction queue wakeup accesses
system.cpu.iq.int_alu_accesses               12785242                       # Number of integer alu accesses
system.cpu.iq.fp_alu_accesses                    5012                       # Number of floating point alu accesses
system.cpu.iq.vec_alu_accesses                      0                       # Number of vector alu accesses
system.cpu.iew.lsq.thread0.forwLoads             2299                       # Number of loads that had data forwarded from stores
system.cpu.iew.lsq.thread0.invAddrLoads             0                       # Number of loads ignored due to an invalid address
system.cpu.iew.lsq.thread0.squashedLoads        14353                       # Number of loads squashed
system.cpu.iew.lsq.thread0.ignoredResponses           21                       # Number of memory responses ignored because the instruction is squashed
system.cpu.iew.lsq.thread0.memOrderViolation           41                       # Number of memory ordering violations
system.cpu.iew.lsq.thread0.squashedStores         6125                       # Number of stores squashed
system.cpu.iew.lsq.thread0.invAddrSwpfs             0                       # Number of software prefetches ignored due to an invalid address
system.cpu.iew.lsq.thread0.blockedLoads             0                       # Number of blocked loads due to partial load-store forwarding
system.cpu.iew.lsq.thread0.rescheduledLoads            2                       # Number of loads that were rescheduled
system.cpu.iew.lsq.thread0.cacheBlocked       3586875                       # Number of times an access to memory failed due to the cache being blocked
system.cpu.iew.iewIdleCycles                        0                       # Number of cycles IEW is idle
system.cpu.iew.iewSquashCycles                   2789                       # Number of cycles IEW is squashing
system.cpu.iew.iewBlockCycles                   43896                       # Number of cycles IEW is blocking
system.cpu.iew.iewUnblockCycles                  3444                       # Number of cycles IEW is unblocking
system.cpu.iew.iewDispatchedInsts             8740267                       # Number of instructions dispatched to IQ
system.cpu.iew.iewDispSquashedInsts               160                       # Number of squashed instructions skipped by dispatch
system.cpu.iew.iewDispLoadInsts                534627                       # Number of dispatched load instructions
system.cpu.iew.iewDispStoreInsts                15884                       # Number of dispatched store instructions
system.cpu.iew.iewDispNonSpecInsts                 59                       # Number of dispatched non-speculative instructions
system.cpu.iew.iewIQFullEvents                    676                       # Number of times the IQ has become full, causing a stall
system.cpu.iew.iewLSQFullEvents                  2540                       # Number of times the LSQ has become full, causing a stall
system.cpu.iew.memOrderViolationEvents             41                       # Number of memory order violations
system.cpu.iew.predictedTakenIncorrect            717                       # Number of branches that were predicted taken incorrectly
system.cpu.iew.predictedNotTakenIncorrect         2784                       # Number of branches that were predicted not taken incorrectly
system.cpu.iew.branchMispredicts                 3501                       # Number of branch mispredicts detected at execute
system.cpu.iew.iewExecutedInsts              12287348                       # Number of executed instructions
system.cpu.iew.iewExecLoadInsts               4116068                       # Number of load instructions executed
system.cpu.iew.iewExecSquashedInsts              5487                       # Number of squashed instructions skipped in execute
system.cpu.iew.exec_swp                             0                       # number of swp insts executed
system.cpu.iew.exec_nop                             0                       # number of nop insts executed
system.cpu.iew.exec_refs                      4129202                       # number of memory reference insts executed
system.cpu.iew.exec_branches                   518471                       # Number of branches executed
system.cpu.iew.exec_stores                      13134                       # Number of stores executed
system.cpu.iew.exec_rate                     0.776804                       # Inst execution rate
system.cpu.iew.wb_sent                        8698508                       # cumulative count of insts sent to commit
system.cpu.iew.wb_count                       8697122                       # cumulative count of insts written-back
system.cpu.iew.wb_producers                   7104504                       # num instructions producing a value
system.cpu.iew.wb_consumers                  11606441                       # num instructions consuming a value
system.cpu.iew.wb_rate                       0.549830                       # insts written-back per cycle
system.cpu.iew.wb_fanout                     0.612117                       # average fanout of values written-back
system.cpu.commit.commitSquashedInsts           96178                       # The number of squashed insts skipped by commit
system.cpu.commit.commitNonSpecStalls              27                       # The number of times commit has been forced to stall to communicate backwards
system.cpu.commit.branchMispredicts              2759                       # The number of times a branch was mispredicted
system.cpu.commit.committed_per_cycle::samples     15768085                       # Number of insts commited each cycle
system.cpu.commit.committed_per_cycle::mean     0.548202                       # Number of insts commited each cycle
system.cpu.commit.committed_per_cycle::stdev     1.960537                       # Number of insts commited each cycle
system.cpu.commit.committed_per_cycle::underflows            0      0.00%      0.00% # Number of insts commited each cycle
system.cpu.commit.committed_per_cycle::0     14237201     90.29%     90.29% # Number of insts commited each cycle
system.cpu.commit.committed_per_cycle::1       498828      3.16%     93.45% # Number of insts commited each cycle
system.cpu.commit.committed_per_cycle::2         8916      0.06%     93.51% # Number of insts commited each cycle
system.cpu.commit.committed_per_cycle::3         7287      0.05%     93.56% # Number of insts commited each cycle
system.cpu.commit.committed_per_cycle::4         2879      0.02%     93.58% # Number of insts commited each cycle
system.cpu.commit.committed_per_cycle::5         2381      0.02%     93.59% # Number of insts commited each cycle
system.cpu.commit.committed_per_cycle::6          875      0.01%     93.60% # Number of insts commited each cycle
system.cpu.commit.committed_per_cycle::7          834      0.01%     93.60% # Number of insts commited each cycle
system.cpu.commit.committed_per_cycle::8      1008884      6.40%    100.00% # Number of insts commited each cycle
system.cpu.commit.committed_per_cycle::overflows            0      0.00%    100.00% # Number of insts commited each cycle
system.cpu.commit.committed_per_cycle::min_value            0                       # Number of insts commited each cycle
system.cpu.commit.committed_per_cycle::max_value            8                       # Number of insts commited each cycle
system.cpu.commit.committed_per_cycle::total     15768085                       # Number of insts commited each cycle
system.cpu.commit.committedInsts              5577907                       # Number of instructions committed
system.cpu.commit.committedOps                8644102                       # Number of ops (including micro ops) committed
system.cpu.commit.swp_count                         0                       # Number of s/w prefetches committed
system.cpu.commit.refs                         530033                       # Number of memory references committed
system.cpu.commit.loads                        520274                       # Number of loads committed
system.cpu.commit.membars                           0                       # Number of memory barriers committed
system.cpu.commit.branches                     515040                       # Number of branches committed
system.cpu.commit.vec_insts                         0                       # Number of committed Vector instructions.
system.cpu.commit.fp_insts                       3004                       # Number of committed floating point instructions.
system.cpu.commit.int_insts                   8641216                       # Number of committed integer instructions.
system.cpu.commit.function_calls                  588                       # Number of function calls committed.
system.cpu.commit.op_class_0::No_OpClass         1154      0.01%      0.01% # Class of committed instruction
system.cpu.commit.op_class_0::IntAlu          8109862     93.82%     93.83% # Class of committed instruction
system.cpu.commit.op_class_0::IntMult              11      0.00%     93.83% # Class of committed instruction
system.cpu.commit.op_class_0::IntDiv             1083      0.01%     93.85% # Class of committed instruction
system.cpu.commit.op_class_0::FloatAdd             18      0.00%     93.85% # Class of committed instruction
system.cpu.commit.op_class_0::FloatCmp              0      0.00%     93.85% # Class of committed instruction
system.cpu.commit.op_class_0::FloatCvt              0      0.00%     93.85% # Class of committed instruction
system.cpu.commit.op_class_0::FloatMult             0      0.00%     93.85% # Class of committed instruction
system.cpu.commit.op_class_0::FloatMultAcc            0      0.00%     93.85% # Class of committed instruction
system.cpu.commit.op_class_0::FloatDiv              0      0.00%     93.85% # Class of committed instruction
system.cpu.commit.op_class_0::FloatMisc             0      0.00%     93.85% # Class of committed instruction
system.cpu.commit.op_class_0::FloatSqrt             0      0.00%     93.85% # Class of committed instruction
system.cpu.commit.op_class_0::SimdAdd             284      0.00%     93.85% # Class of committed instruction
system.cpu.commit.op_class_0::SimdAddAcc            0      0.00%     93.85% # Class of committed instruction
system.cpu.commit.op_class_0::SimdAlu             403      0.00%     93.85% # Class of committed instruction
system.cpu.commit.op_class_0::SimdCmp               6      0.00%     93.85% # Class of committed instruction
system.cpu.commit.op_class_0::SimdCvt             664      0.01%     93.86% # Class of committed instruction
system.cpu.commit.op_class_0::SimdMisc            482      0.01%     93.87% # Class of committed instruction
system.cpu.commit.op_class_0::SimdMult              0      0.00%     93.87% # Class of committed instruction
system.cpu.commit.op_class_0::SimdMultAcc            0      0.00%     93.87% # Class of committed instruction
system.cpu.commit.op_class_0::SimdShift           102      0.00%     93.87% # Class of committed instruction
system.cpu.commit.op_class_0::SimdShiftAcc            0      0.00%     93.87% # Class of committed instruction
system.cpu.commit.op_class_0::SimdSqrt              0      0.00%     93.87% # Class of committed instruction
system.cpu.commit.op_class_0::SimdFloatAdd            0      0.00%     93.87% # Class of committed instruction
system.cpu.commit.op_class_0::SimdFloatAlu            0      0.00%     93.87% # Class of committed instruction
system.cpu.commit.op_class_0::SimdFloatCmp            0      0.00%     93.87% # Class of committed instruction
system.cpu.commit.op_class_0::SimdFloatCvt            0      0.00%     93.87% # Class of committed instruction
system.cpu.commit.op_class_0::SimdFloatDiv            0      0.00%     93.87% # Class of committed instruction
system.cpu.commit.op_class_0::SimdFloatMisc            0      0.00%     93.87% # Class of committed instruction
system.cpu.commit.op_class_0::SimdFloatMult            0      0.00%     93.87% # Class of committed instruction
system.cpu.commit.op_class_0::SimdFloatMultAcc            0      0.00%     93.87% # Class of committed instruction
system.cpu.commit.op_class_0::SimdFloatSqrt            0      0.00%     93.87% # Class of committed instruction
system.cpu.commit.op_class_0::SimdAes               0      0.00%     93.87% # Class of committed instruction
system.cpu.commit.op_class_0::SimdAesMix            0      0.00%     93.87% # Class of committed instruction
system.cpu.commit.op_class_0::SimdSha1Hash            0      0.00%     93.87% # Class of committed instruction
system.cpu.commit.op_class_0::SimdSha1Hash2            0      0.00%     93.87% # Class of committed instruction
system.cpu.commit.op_class_0::SimdSha256Hash            0      0.00%     93.87% # Class of committed instruction
system.cpu.commit.op_class_0::SimdSha256Hash2            0      0.00%     93.87% # Class of committed instruction
system.cpu.commit.op_class_0::SimdShaSigma2            0      0.00%     93.87% # Class of committed instruction
system.cpu.commit.op_class_0::SimdShaSigma3            0      0.00%     93.87% # Class of committed instruction
system.cpu.commit.op_class_0::MemRead          519612      6.01%     99.88% # Class of committed instruction
system.cpu.commit.op_class_0::MemWrite           9423      0.11%     99.99% # Class of committed instruction
system.cpu.commit.op_class_0::FloatMemRead          662      0.01%    100.00% # Class of committed instruction
system.cpu.commit.op_class_0::FloatMemWrite          336      0.00%    100.00% # Class of committed instruction
system.cpu.commit.op_class_0::IprAccess             0      0.00%    100.00% # Class of committed instruction
system.cpu.commit.op_class_0::InstPrefetch            0      0.00%    100.00% # Class of committed instruction
system.cpu.commit.op_class_0::total           8644102                       # Class of committed instruction
system.cpu.commit.bw_lim_events               1008884                       # number cycles where commit BW limit reached
system.cpu.rob.rob_reads                     23499481                       # The number of ROB reads
system.cpu.rob.rob_writes                    17495287                       # The number of ROB writes
system.cpu.timesIdled                             563                       # Number of times that the entire CPU went into an idle state and unscheduled itself
system.cpu.idleCycles                           35184                       # Total number of cycles that the CPU has spent unscheduled due to idling
system.cpu.committedInsts                     5577907                       # Number of Instructions Simulated
system.cpu.committedOps                       8644102                       # Number of Ops (including micro ops) Simulated
system.cpu.cpi                               2.835801                       # CPI: Cycles Per Instruction
system.cpu.cpi_total                         2.835801                       # CPI: Total CPI of All Threads
system.cpu.ipc                               0.352634                       # IPC: Instructions Per Cycle
system.cpu.ipc_total                         0.352634                       # IPC: Total IPC of All Threads
system.cpu.int_regfile_reads                 20460997                       # number of integer regfile reads
system.cpu.int_regfile_writes                 8163540                       # number of integer regfile writes
system.cpu.fp_regfile_reads                      7059                       # number of floating regfile reads
system.cpu.fp_regfile_writes                     3704                       # number of floating regfile writes
system.cpu.cc_regfile_reads                   5101177                       # number of cc regfile reads
system.cpu.cc_regfile_writes                  8068435                       # number of cc regfile writes
system.cpu.misc_regfile_reads                 5171004                       # number of misc regfile reads
system.cpu.dcache.tags.pwrStateResidencyTicks::UNDEFINED  15817831000                       # Cumulative time (in ticks) in various power states
system.cpu.dcache.tags.tagsinuse           255.618259                       # Cycle average of tags in use
system.cpu.dcache.tags.total_refs              532000                       # Total number of references to valid blocks.
system.cpu.dcache.tags.sampled_refs            499952                       # Sample count of references to valid blocks.
system.cpu.dcache.tags.avg_refs              1.064102                       # Average number of references to valid blocks.
system.cpu.dcache.tags.warmup_cycle            232000                       # Cycle when the warmup percentage was hit.
system.cpu.dcache.tags.occ_blocks::.cpu.data   255.618259                       # Average occupied blocks per requestor
system.cpu.dcache.tags.occ_percent::.cpu.data     0.998509                       # Average percentage of cache occupancy
system.cpu.dcache.tags.occ_percent::total     0.998509                       # Average percentage of cache occupancy
system.cpu.dcache.tags.occ_task_id_blocks::1024          256                       # Occupied blocks per task id
system.cpu.dcache.tags.age_task_id_blocks_1024::0          158                       # Occupied blocks per task id
system.cpu.dcache.tags.age_task_id_blocks_1024::1           98                       # Occupied blocks per task id
system.cpu.dcache.tags.occ_task_id_percent::1024            1                       # Percentage of cache occupancy per task id
system.cpu.dcache.tags.tag_accesses           1572450                       # Number of tag accesses
system.cpu.dcache.tags.data_accesses          1572450                       # Number of data accesses
[...]
system.l2cache.tags.occ_task_id_percent::1024            1                       # Percentage of cache occupancy per task id
system.l2cache.tags.tag_accesses              8481026                       # Number of tag accesses
system.l2cache.tags.data_accesses             8481026                       # Number of data accesses
system.l2cache.pwrStateResidencyTicks::UNDEFINED  15817831000                       # Cumulative time (in ticks) in various power states
system.l2cache.WritebackDirty_hits::.writebacks          709                       # number of WritebackDirty hits
system.l2cache.WritebackDirty_hits::total          709                       # number of WritebackDirty hits
system.l2cache.ReadExReq_hits::.cpu.data           45                       # number of ReadExReq hits
system.l2cache.ReadExReq_hits::total               45                       # number of ReadExReq hits
system.l2cache.ReadSharedReq_hits::.cpu.inst          190                       # number of ReadSharedReq hits
system.l2cache.ReadSharedReq_hits::.cpu.data        30814                       # number of ReadSharedReq hits
system.l2cache.ReadSharedReq_hits::total        31004                       # number of ReadSharedReq hits
system.l2cache.demand_hits::.cpu.inst             190                       # number of demand (read+write) hits
system.l2cache.demand_hits::.cpu.data           30859                       # number of demand (read+write) hits
system.l2cache.demand_hits::total               31049                       # number of demand (read+write) hits
system.l2cache.overall_hits::.cpu.inst            190                       # number of overall hits
system.l2cache.overall_hits::.cpu.data          30859                       # number of overall hits
system.l2cache.overall_hits::total              31049                       # number of overall hits
system.l2cache.ReadExReq_misses::.cpu.data          420                       # number of ReadExReq misses
system.l2cache.ReadExReq_misses::total            420                       # number of ReadExReq misses
system.l2cache.ReadSharedReq_misses::.cpu.inst          813                       # number of ReadSharedReq misses
system.l2cache.ReadSharedReq_misses::.cpu.data       468673                       # number of ReadSharedReq misses
system.l2cache.ReadSharedReq_misses::total       469486                       # number of ReadSharedReq misses
system.l2cache.demand_misses::.cpu.inst           813                       # number of demand (read+write) misses
system.l2cache.demand_misses::.cpu.data        469093                       # number of demand (read+write) misses
system.l2cache.demand_misses::total            469906                       # number of demand (read+write) misses
system.l2cache.overall_misses::.cpu.inst          813                       # number of overall misses
system.l2cache.overall_misses::.cpu.data       469093                       # number of overall misses
system.l2cache.overall_misses::total           469906                       # number of overall misses
system.l2cache.ReadExReq_miss_latency::.cpu.data     42569000                       # number of ReadExReq miss cycles
system.l2cache.ReadExReq_miss_latency::total     42569000                       # number of ReadExReq miss cycles
system.l2cache.ReadSharedReq_miss_latency::.cpu.inst     83951000                       # number of ReadSharedReq miss cycles
system.l2cache.ReadSharedReq_miss_latency::.cpu.data  59508563000                       # number of ReadSharedReq miss cycles
system.l2cache.ReadSharedReq_miss_latency::total  59592514000                       # number of ReadSharedReq miss cycles
system.l2cache.demand_miss_latency::.cpu.inst     83951000                       # number of demand (read+write) miss cycles
system.l2cache.demand_miss_latency::.cpu.data  59551132000                       # number of demand (read+write) miss cycles
system.l2cache.demand_miss_latency::total  59635083000                       # number of demand (read+write) miss cycles
system.l2cache.overall_miss_latency::.cpu.inst     83951000                       # number of overall miss cycles
system.l2cache.overall_miss_latency::.cpu.data  59551132000                       # number of overall miss cycles
system.l2cache.overall_miss_latency::total  59635083000                       # number of overall miss cycles
system.l2cache.WritebackDirty_accesses::.writebacks          709                       # number of WritebackDirty accesses(hits+misses)
system.l2cache.WritebackDirty_accesses::total          709                       # number of WritebackDirty accesses(hits+misses)
system.l2cache.ReadExReq_accesses::.cpu.data          465                       # number of ReadExReq accesses(hits+misses)
system.l2cache.ReadExReq_accesses::total          465                       # number of ReadExReq accesses(hits+misses)
system.l2cache.ReadSharedReq_accesses::.cpu.inst         1003                       # number of ReadSharedReq accesses(hits+misses)
system.l2cache.ReadSharedReq_accesses::.cpu.data       499487                       # number of ReadSharedReq accesses(hits+misses)
system.l2cache.ReadSharedReq_accesses::total       500490                       # number of ReadSharedReq accesses(hits+misses)
system.l2cache.demand_accesses::.cpu.inst         1003                       # number of demand (read+write) accesses
system.l2cache.demand_accesses::.cpu.data       499952                       # number of demand (read+write) accesses
system.l2cache.demand_accesses::total          500955                       # number of demand (read+write) accesses
system.l2cache.overall_accesses::.cpu.inst         1003                       # number of overall (read+write) accesses
system.l2cache.overall_accesses::.cpu.data       499952                       # number of overall (read+write) accesses
system.l2cache.overall_accesses::total         500955                       # number of overall (read+write) accesses
system.l2cache.ReadExReq_miss_rate::.cpu.data     0.903226                       # miss rate for ReadExReq accesses
system.l2cache.ReadExReq_miss_rate::total     0.903226                       # miss rate for ReadExReq accesses
system.l2cache.ReadSharedReq_miss_rate::.cpu.inst     0.810568                       # miss rate for ReadSharedReq accesses
system.l2cache.ReadSharedReq_miss_rate::.cpu.data     0.938309                       # miss rate for ReadSharedReq accesses
system.l2cache.ReadSharedReq_miss_rate::total     0.938053                       # miss rate for ReadSharedReq accesses
system.l2cache.demand_miss_rate::.cpu.inst     0.810568                       # miss rate for demand accesses
system.l2cache.demand_miss_rate::.cpu.data     0.938276                       # miss rate for demand accesses
system.l2cache.demand_miss_rate::total       0.938020                       # miss rate for demand accesses
system.l2cache.overall_miss_rate::.cpu.inst     0.810568                       # miss rate for overall accesses
system.l2cache.overall_miss_rate::.cpu.data     0.938276                       # miss rate for overall accesses
system.l2cache.overall_miss_rate::total      0.938020                       # miss rate for overall accesses
system.l2cache.ReadExReq_avg_miss_latency::.cpu.data 101354.761905                       # average ReadExReq miss latency
system.l2cache.ReadExReq_avg_miss_latency::total 101354.761905                       # average ReadExReq miss latency
system.l2cache.ReadSharedReq_avg_miss_latency::.cpu.inst 103260.762608                       # average ReadSharedReq miss latency
system.l2cache.ReadSharedReq_avg_miss_latency::.cpu.data 126972.458409                       # average ReadSharedReq miss latency
system.l2cache.ReadSharedReq_avg_miss_latency::total 126931.397315                       # average ReadSharedReq miss latency
system.l2cache.demand_avg_miss_latency::.cpu.inst 103260.762608                       # average overall miss latency
system.l2cache.demand_avg_miss_latency::.cpu.data 126949.521737                       # average overall miss latency
system.l2cache.demand_avg_miss_latency::total 126908.537027                       # average overall miss latency
system.l2cache.overall_avg_miss_latency::.cpu.inst 103260.762608                       # average overall miss latency
system.l2cache.overall_avg_miss_latency::.cpu.data 126949.521737                       # average overall miss latency
system.l2cache.overall_avg_miss_latency::total 126908.537027                       # average overall miss latency
system.l2cache.blocked_cycles::no_mshrs             0                       # number of cycles access was blocked
system.l2cache.blocked_cycles::no_targets            0                       # number of cycles access was blocked
system.l2cache.blocked::no_mshrs                    0                       # number of cycles access was blocked
system.l2cache.blocked::no_targets                  0                       # number of cycles access was blocked
system.l2cache.avg_blocked_cycles::no_mshrs          nan                       # average number of cycles each access was blocked
system.l2cache.avg_blocked_cycles::no_targets          nan                       # average number of cycles each access was blocked
system.l2cache.writebacks::.writebacks            474                       # number of writebacks
system.l2cache.writebacks::total                  474                       # number of writebacks
system.l2cache.CleanEvict_mshr_misses::.writebacks           59                       # number of CleanEvict MSHR misses
system.l2cache.CleanEvict_mshr_misses::total           59                       # number of CleanEvict MSHR misses
system.l2cache.ReadExReq_mshr_misses::.cpu.data          420                       # number of ReadExReq MSHR misses
system.l2cache.ReadExReq_mshr_misses::total          420                       # number of ReadExReq MSHR misses
system.l2cache.ReadSharedReq_mshr_misses::.cpu.inst          813                       # number of ReadSharedReq MSHR misses
system.l2cache.ReadSharedReq_mshr_misses::.cpu.data       468673                       # number of ReadSharedReq MSHR misses
system.l2cache.ReadSharedReq_mshr_misses::total       469486                       # number of ReadSharedReq MSHR misses
system.l2cache.demand_mshr_misses::.cpu.inst          813                       # number of demand (read+write) MSHR misses
system.l2cache.demand_mshr_misses::.cpu.data       469093                       # number of demand (read+write) MSHR misses
system.l2cache.demand_mshr_misses::total       469906                       # number of demand (read+write) MSHR misses
system.l2cache.overall_mshr_misses::.cpu.inst          813                       # number of overall MSHR misses
system.l2cache.overall_mshr_misses::.cpu.data       469093                       # number of overall MSHR misses
system.l2cache.overall_mshr_misses::total       469906                       # number of overall MSHR misses
system.l2cache.ReadExReq_mshr_miss_latency::.cpu.data     34169000                       # number of ReadExReq MSHR miss cycles
system.l2cache.ReadExReq_mshr_miss_latency::total     34169000                       # number of ReadExReq MSHR miss cycles
system.l2cache.ReadSharedReq_mshr_miss_latency::.cpu.inst     67691000                       # number of ReadSharedReq MSHR miss cycles
system.l2cache.ReadSharedReq_mshr_miss_latency::.cpu.data  50135103000                       # number of ReadSharedReq MSHR miss cycles
system.l2cache.ReadSharedReq_mshr_miss_latency::total  50202794000                       # number of ReadSharedReq MSHR miss cycles
system.l2cache.demand_mshr_miss_latency::.cpu.inst     67691000                       # number of demand (read+write) MSHR miss cycles
system.l2cache.demand_mshr_miss_latency::.cpu.data  50169272000                       # number of demand (read+write) MSHR miss cycles
system.l2cache.demand_mshr_miss_latency::total  50236963000                       # number of demand (read+write) MSHR miss cycles
system.l2cache.overall_mshr_miss_latency::.cpu.inst     67691000                       # number of overall MSHR miss cycles
system.l2cache.overall_mshr_miss_latency::.cpu.data  50169272000                       # number of overall MSHR miss cycles
system.l2cache.overall_mshr_miss_latency::total  50236963000                       # number of overall MSHR miss cycles
system.l2cache.CleanEvict_mshr_miss_rate::.writebacks          inf                       # mshr miss rate for CleanEvict accesses
system.l2cache.CleanEvict_mshr_miss_rate::total          inf                       # mshr miss rate for CleanEvict accesses
system.l2cache.ReadExReq_mshr_miss_rate::.cpu.data     0.903226                       # mshr miss rate for ReadExReq accesses
system.l2cache.ReadExReq_mshr_miss_rate::total     0.903226                       # mshr miss rate for ReadExReq accesses
system.l2cache.ReadSharedReq_mshr_miss_rate::.cpu.inst     0.810568                       # mshr miss rate for ReadSharedReq accesses
system.l2cache.ReadSharedReq_mshr_miss_rate::.cpu.data     0.938309                       # mshr miss rate for ReadSharedReq accesses
system.l2cache.ReadSharedReq_mshr_miss_rate::total     0.938053                       # mshr miss rate for ReadSharedReq accesses
system.l2cache.demand_mshr_miss_rate::.cpu.inst     0.810568                       # mshr miss rate for demand accesses
system.l2cache.demand_mshr_miss_rate::.cpu.data     0.938276                       # mshr miss rate for demand accesses
system.l2cache.demand_mshr_miss_rate::total     0.938020                       # mshr miss rate for demand accesses
system.l2cache.overall_mshr_miss_rate::.cpu.inst     0.810568                       # mshr miss rate for overall accesses
system.l2cache.overall_mshr_miss_rate::.cpu.data     0.938276                       # mshr miss rate for overall accesses
system.l2cache.overall_mshr_miss_rate::total     0.938020                       # mshr miss rate for overall accesses
system.l2cache.ReadExReq_avg_mshr_miss_latency::.cpu.data 81354.761905                       # average ReadExReq mshr miss latency
system.l2cache.ReadExReq_avg_mshr_miss_latency::total 81354.761905                       # average ReadExReq mshr miss latency
system.l2cache.ReadSharedReq_avg_mshr_miss_latency::.cpu.inst 83260.762608                       # average ReadSharedReq mshr miss latency
system.l2cache.ReadSharedReq_avg_mshr_miss_latency::.cpu.data 106972.458409                       # average ReadSharedReq mshr miss latency
system.l2cache.ReadSharedReq_avg_mshr_miss_latency::total 106931.397315                       # average ReadSharedReq mshr miss latency
system.l2cache.demand_avg_mshr_miss_latency::.cpu.inst 83260.762608                       # average overall mshr miss latency
system.l2cache.demand_avg_mshr_miss_latency::.cpu.data 106949.521737                       # average overall mshr miss latency
system.l2cache.demand_avg_mshr_miss_latency::total 106908.537027                       # average overall mshr miss latency
system.l2cache.overall_avg_mshr_miss_latency::.cpu.inst 83260.762608                       # average overall mshr miss latency
system.l2cache.overall_avg_mshr_miss_latency::.cpu.data 106949.521737                       # average overall mshr miss latency
system.l2cache.overall_avg_mshr_miss_latency::total 106908.537027                       # average overall mshr miss latency
system.l2cache.replacements                    465810                       # number of replacements
system.membus.snoop_filter.tot_requests        935518                       # Total number of requests made to the snoop filter.
system.membus.snoop_filter.hit_single_requests       465612                       # Number of requests hitting in the snoop filter with a single holder of the requested data.
system.membus.snoop_filter.hit_multi_requests            0                       # Number of requests hitting in the snoop filter with multiple (>1) holders of the requested data.
system.membus.snoop_filter.tot_snoops               0                       # Total number of snoops made to the snoop filter.
system.membus.snoop_filter.hit_single_snoops            0                       # Number of snoops hitting in the snoop filter with a single holder of the requested data.
system.membus.snoop_filter.hit_multi_snoops            0                       # Number of snoops hitting in the snoop filter with multiple (>1) holders of the requested data.
system.membus.pwrStateResidencyTicks::UNDEFINED  15817831000                       # Cumulative time (in ticks) in various power states
system.membus.trans_dist::ReadResp             469486                       # Transaction distribution
system.membus.trans_dist::WritebackDirty          474                       # Transaction distribution
system.membus.trans_dist::CleanEvict           465138                       # Transaction distribution
system.membus.trans_dist::ReadExReq               420                       # Transaction distribution
system.membus.trans_dist::ReadExResp              420                       # Transaction distribution
system.membus.trans_dist::ReadSharedReq        469486                       # Transaction distribution
system.membus.pkt_count_system.l2cache.mem_side::system.mem_ctrl.port      1405424                       # Packet count per connected master and slave (bytes)
system.membus.pkt_count_system.l2cache.mem_side::total      1405424                       # Packet count per connected master and slave (bytes)
system.membus.pkt_count::total                1405424                       # Packet count per connected master and slave (bytes)
system.membus.pkt_size_system.l2cache.mem_side::system.mem_ctrl.port     30104320                       # Cumulative packet size per connected master and slave (bytes)
system.membus.pkt_size_system.l2cache.mem_side::total     30104320                       # Cumulative packet size per connected master and slave (bytes)
system.membus.pkt_size::total                30104320                       # Cumulative packet size per connected master and slave (bytes)
system.membus.snoops                                0                       # Total snoops (count)
system.membus.snoopTraffic                          0                       # Total snoop traffic (bytes)
system.membus.snoop_fanout::samples            469906                       # Request fanout histogram
system.membus.snoop_fanout::mean                    0                       # Request fanout histogram
system.membus.snoop_fanout::stdev                   0                       # Request fanout histogram
system.membus.snoop_fanout::underflows              0      0.00%      0.00% # Request fanout histogram
system.membus.snoop_fanout::0                  469906    100.00%    100.00% # Request fanout histogram
system.membus.snoop_fanout::1                       0      0.00%    100.00% # Request fanout histogram
system.membus.snoop_fanout::overflows               0      0.00%    100.00% # Request fanout histogram
system.membus.snoop_fanout::min_value               0                       # Request fanout histogram
system.membus.snoop_fanout::max_value               0                       # Request fanout histogram
system.membus.snoop_fanout::total              469906                       # Request fanout histogram
system.membus.reqLayer2.occupancy           937414000                       # Layer occupancy (ticks)
system.membus.reqLayer2.utilization               5.9                       # Layer utilization (%)
system.membus.respLayer0.occupancy         2639357500                       # Layer occupancy (ticks)
system.membus.respLayer0.utilization             16.7                       # Layer utilization (%)

---------- End Simulation Statistics   ----------
