
---------- Begin Simulation Statistics ----------
sim_seconds                                  0.037245                       # Number of seconds simulated
sim_ticks                                 37245379000                       # Number of ticks simulated
final_tick                                37245379000                       # Number of ticks from beginning of simulation (restored from checkpoints and never reset)
sim_freq                                 1000000000000                       # Frequency of simulated ticks
host_inst_rate                                  76692                       # Simulator instruction rate (inst/s)
host_op_rate                                   126059                       # Simulator op (including micro ops) rate (op/s)
host_tick_rate                              230551417                       # Simulator tick rate (ticks/s)
host_mem_usage                                 678024                       # Number of bytes of host memory used
host_seconds                                   161.55                       # Real time elapsed on the host
sim_insts                                    12389450                       # Number of instructions simulated
sim_ops                                      20364678                       # Number of ops (including micro ops) simulated
system.voltage_domain.voltage                       1                       # Voltage in Volts
system.clk_domain.clock                          1000                       # Clock period in ticks
system.mem_ctrls.pwrStateResidencyTicks::UNDEFINED  37245379000                       # Cumulative time (in ticks) in various power states
system.mem_ctrls.bytes_read::.cpu.inst          74048                       # Number of bytes read from this memory
system.mem_ctrls.bytes_read::.cpu.data        1150464                       # Number of bytes read from this memory
system.mem_ctrls.bytes_read::total            1224512                       # Number of bytes read from this memory
system.mem_ctrls.bytes_inst_read::.cpu.inst        74048                       # Number of instructions bytes read from this memory
system.mem_ctrls.bytes_inst_read::total         74048                       # Number of instructions bytes read from this memory
system.mem_ctrls.num_reads::.cpu.inst            1157                       # Number of read requests responded to by this memory
system.mem_ctrls.num_reads::.cpu.data           17976                       # Number of read requests responded to by this memory
system.mem_ctrls.num_reads::total               19133                       # Number of read requests responded to by this memory
system.mem_ctrls.bw_read::.cpu.inst           1988112                       # Total read bandwidth from this memory (bytes/s)
system.mem_ctrls.bw_read::.cpu.data          30888771                       # Total read bandwidth from this memory (bytes/s)
system.mem_ctrls.bw_read::total              32876884                       # Total read bandwidth from this memory (bytes/s)
system.mem_ctrls.bw_inst_read::.cpu.inst      1988112                       # Instruction read bandwidth from this memory (bytes/s)
system.mem_ctrls.bw_inst_read::total          1988112                       # Instruction read bandwidth from this memory (bytes/s)
system.mem_ctrls.bw_total::.cpu.inst          1988112                       # Total bandwidth to/from this memory (bytes/s)
system.mem_ctrls.bw_total::.cpu.data         30888771                       # Total bandwidth to/from this memory (bytes/s)
system.mem_ctrls.bw_total::total             32876884                       # Total bandwidth to/from this memory (bytes/s)
system.mem_ctrls.avgPriority_.cpu.inst::samples      2314.00                       # Average QoS priority value for accepted requests
system.mem_ctrls.avgPriority_.cpu.data::samples     35952.00                       # Average QoS priority value for accepted requests
system.mem_ctrls.priorityMinLatency      0.000000019000                       # per QoS priority minimum request to response latency (s)
system.mem_ctrls.priorityMaxLatency      0.000000713000                       # per QoS priority maximum request to response latency (s)
system.mem_ctrls.numReadWriteTurnArounds            0                       # Number of turnarounds from READ to WRITE
system.mem_ctrls.numWriteReadTurnArounds            0                       # Number of turnarounds from WRITE to READ
system.mem_ctrls.numStayReadState               59530                       # Number of times bus staying in READ state
system.mem_ctrls.numStayWriteState                  0                       # Number of times bus staying in WRITE state
system.mem_ctrls.readReqs                       19133                       # Number of read requests accepted
system.mem_ctrls.writeReqs                          0                       # Number of write requests accepted
system.mem_ctrls.readBursts                     38266                       # Number of DRAM read bursts, including those serviced by the write queue
system.mem_ctrls.writeBursts                        0                       # Number of DRAM write bursts, including those merged in the write queue
system.mem_ctrls.bytesReadDRAM                1224512                       # Total number of bytes read from DRAM
system.mem_ctrls.bytesReadWrQ                       0                       # Total number of bytes read from write queue
system.mem_ctrls.bytesWritten                       0                       # Total number of bytes written to DRAM
system.mem_ctrls.bytesReadSys                 1224512                       # Total read bytes from the system interface side
system.mem_ctrls.bytesWrittenSys                    0                       # Total written bytes from the system interface side
system.mem_ctrls.servicedByWrQ                      0                       # Number of DRAM read bursts serviced by the write queue
system.mem_ctrls.mergedWrBursts                     0                       # Number of DRAM write bursts merged with an existing one
system.mem_ctrls.neitherReadNorWriteReqs            0                       # Number of requests that are neither read nor write
system.mem_ctrls.perBankRdBursts::0              2388                       # Per bank write bursts
system.mem_ctrls.perBankRdBursts::1              2390                       # Per bank write bursts
system.mem_ctrls.perBankRdBursts::2              2396                       # Per bank write bursts
system.mem_ctrls.perBankRdBursts::3              2406                       # Per bank write bursts
system.mem_ctrls.perBankRdBursts::4              2426                       # Per bank write bursts
system.mem_ctrls.perBankRdBursts::5              2400                       # Per bank write bursts
system.mem_ctrls.perBankRdBursts::6              2364                       # Per bank write bursts
system.mem_ctrls.perBankRdBursts::7              2364                       # Per bank write bursts
system.mem_ctrls.perBankRdBursts::8              2344                       # Per bank write bursts
system.mem_ctrls.perBankRdBursts::9              2360                       # Per bank write bursts
system.mem_ctrls.perBankRdBursts::10             2364                       # Per bank write bursts
system.mem_ctrls.perBankRdBursts::11             2384                       # Per bank write bursts
system.mem_ctrls.perBankRdBursts::12             2378                       # Per bank write bursts
system.mem_ctrls.perBankRdBursts::13             2472                       # Per bank write bursts
system.mem_ctrls.perBankRdBursts::14             2428                       # Per bank write bursts
system.mem_ctrls.perBankRdBursts::15             2402                       # Per bank write bursts
system.mem_ctrls.perBankWrBursts::0                 0                       # Per bank write bursts
system.mem_ctrls.perBankWrBursts::1                 0                       # Per bank write bursts
system.mem_ctrls.perBankWrBursts::2                 0                       # Per bank write bursts
system.mem_ctrls.perBankWrBursts::3                 0                       # Per bank write bursts
system.mem_ctrls.perBankWrBursts::4                 0                       # Per bank write bursts
system.mem_ctrls.perBankWrBursts::5                 0                       # Per bank write bursts
system.mem_ctrls.perBankWrBursts::6                 0                       # Per bank write bursts
system.mem_ctrls.perBankWrBursts::7                 0                       # Per bank write bursts
system.mem_ctrls.perBankWrBursts::8                 0                       # Per bank write bursts
system.mem_ctrls.perBankWrBursts::9                 0                       # Per bank write bursts
system.mem_ctrls.perBankWrBursts::10                0                       # Per bank write bursts
system.mem_ctrls.perBankWrBursts::11                0                       # Per bank write bursts
system.mem_ctrls.perBankWrBursts::12                0                       # Per bank write bursts
system.mem_ctrls.perBankWrBursts::13                0                       # Per bank write bursts
system.mem_ctrls.perBankWrBursts::14                0                       # Per bank write bursts
system.mem_ctrls.perBankWrBursts::15                0                       # Per bank write bursts
system.mem_ctrls.numRdRetry                         0                       # Number of times read queue was full causing retry
system.mem_ctrls.numWrRetry                         0                       # Number of times write queue was full causing retry
system.mem_ctrls.totGap                   37245257000                       # Total gap between requests
system.mem_ctrls.readPktSize::0                     0                       # Read request sizes (log2)
system.mem_ctrls.readPktSize::1                     0                       # Read request sizes (log2)
system.mem_ctrls.readPktSize::2                     0                       # Read request sizes (log2)
system.mem_ctrls.readPktSize::3                     0                       # Read request sizes (log2)
system.mem_ctrls.readPktSize::4                     0                       # Read request sizes (log2)
system.mem_ctrls.readPktSize::5                 38266                       # Read request sizes (log2)
system.mem_ctrls.writePktSize::0                    0                       # Write request sizes (log2)
system.mem_ctrls.writePktSize::1                    0                       # Write request sizes (log2)
system.mem_ctrls.writePktSize::2                    0                       # Write request sizes (log2)
system.mem_ctrls.writePktSize::3                    0                       # Write request sizes (log2)
system.mem_ctrls.writePktSize::4                    0                       # Write request sizes (log2)
system.mem_ctrls.writePktSize::5                    0                       # Write request sizes (log2)
system.mem_ctrls.rdQLenPdf::0                   18888                       # What read queue length does an incoming req see
system.mem_ctrls.rdQLenPdf::1                   18891                       # What read queue length does an incoming req see
system.mem_ctrls.rdQLenPdf::2                     233                       # What read queue length does an incoming req see
system.mem_ctrls.rdQLenPdf::3                     230                       # What read queue length does an incoming req see
system.mem_ctrls.rdQLenPdf::4                      12                       # What read queue length does an incoming req see
system.mem_ctrls.rdQLenPdf::5                      12                       # What read queue length does an incoming req see
system.mem_ctrls.rdQLenPdf::6                       0                       # What read queue length does an incoming req see
system.mem_ctrls.rdQLenPdf::7                       0                       # What read queue length does an incoming req see
system.mem_ctrls.rdQLenPdf::8                       0                       # What read queue length does an incoming req see
system.mem_ctrls.rdQLenPdf::9                       0                       # What read queue length does an incoming req see
system.mem_ctrls.rdQLenPdf::10                      0                       # What read queue length does an incoming req see
system.mem_ctrls.rdQLenPdf::11                      0                       # What read queue length does an incoming req see
system.mem_ctrls.rdQLenPdf::12                      0                       # What read queue length does an incoming req see
system.mem_ctrls.rdQLenPdf::13                      0                       # What read queue length does an incoming req see
system.mem_ctrls.rdQLenPdf::14                      0                       # What read queue length does an incoming req see
system.mem_ctrls.rdQLenPdf::15                      0                       # What read queue length does an incoming req see
system.mem_ctrls.rdQLenPdf::16                      0                       # What read queue length does an incoming req see
system.mem_ctrls.rdQLenPdf::17                      0                       # What read queue length does an incoming req see
system.mem_ctrls.rdQLenPdf::18                      0                       # What read queue length does an incoming req see
system.mem_ctrls.rdQLenPdf::19                      0                       # What read queue length does an incoming req see
system.mem_ctrls.rdQLenPdf::20                      0                       # What read queue length does an incoming req see
system.mem_ctrls.rdQLenPdf::21                      0                       # What read queue length does an incoming req see
system.mem_ctrls.rdQLenPdf::22                      0                       # What read queue length does an incoming req see
system.mem_ctrls.rdQLenPdf::23                      0                       # What read queue length does an incoming req see
system.mem_ctrls.rdQLenPdf::24                      0                       # What read queue length does an incoming req see
system.mem_ctrls.rdQLenPdf::25                      0                       # What read queue length does an incoming req see
system.mem_ctrls.rdQLenPdf::26                      0                       # What read queue length does an incoming req see
system.mem_ctrls.rdQLenPdf::27                      0                       # What read queue length does an incoming req see
system.mem_ctrls.rdQLenPdf::28                      0                       # What read queue length does an incoming req see
system.mem_ctrls.rdQLenPdf::29                      0                       # What read queue length does an incoming req see
system.mem_ctrls.rdQLenPdf::30                      0                       # What read queue length does an incoming req see
system.mem_ctrls.rdQLenPdf::31                      0                       # What read queue length does an incoming req see
system.mem_ctrls.wrQLenPdf::0                       0                       # What write queue length does an incoming req see
system.mem_ctrls.wrQLenPdf::1                       0                       # What write queue length does an incoming req see
system.mem_ctrls.wrQLenPdf::2                       0                       # What write queue length does an incoming req see
system.mem_ctrls.wrQLenPdf::3                       0                       # What write queue length does an incoming req see
system.mem_ctrls.wrQLenPdf::4                       0                       # What write queue length does an incoming req see
system.mem_ctrls.wrQLenPdf::5                       0                       # What write queue length does an incoming req see
system.mem_ctrls.wrQLenPdf::6                       0                       # What write queue length does an incoming req see
system.mem_ctrls.wrQLenPdf::7                       0                       # What write queue length does an incoming req see
system.mem_ctrls.wrQLenPdf::8                       0                       # What write queue length does an incoming req see
system.mem_ctrls.wrQLenPdf::9                       0                       # What write queue length does an incoming req see
system.mem_ctrls.wrQLenPdf::10                      0                       # What write queue length does an incoming req see
system.mem_ctrls.wrQLenPdf::11                      0                       # What write queue length does an incoming req see
system.mem_ctrls.wrQLenPdf::12                      0                       # What write queue length does an incoming req see
system.mem_ctrls.wrQLenPdf::13                      0                       # What write queue length does an incoming req see
system.mem_ctrls.wrQLenPdf::14                      0                       # What write queue length does an incoming req see
system.mem_ctrls.wrQLenPdf::15                      0                       # What write queue length does an incoming req see
system.mem_ctrls.wrQLenPdf::16                      0                       # What write queue length does an incoming req see
system.mem_ctrls.wrQLenPdf::17                      0                       # What write queue length does an incoming req see
system.mem_ctrls.wrQLenPdf::18                      0                       # What write queue length does an incoming req see
system.mem_ctrls.wrQLenPdf::19                      0                       # What write queue length does an incoming req see
system.mem_ctrls.wrQLenPdf::20                      0                       # What write queue length does an incoming req see
system.mem_ctrls.wrQLenPdf::21                      0                       # What write queue length does an incoming req see
system.mem_ctrls.wrQLenPdf::22                      0                       # What write queue length does an incoming req see
system.mem_ctrls.wrQLenPdf::23                      0                       # What write queue length does an incoming req see
system.mem_ctrls.wrQLenPdf::24                      0                       # What write queue length does an incoming req see
system.mem_ctrls.wrQLenPdf::25                      0                       # What write queue length does an incoming req see
system.mem_ctrls.wrQLenPdf::26                      0                       # What write queue length does an incoming req see
system.mem_ctrls.wrQLenPdf::27                      0                       # What write queue length does an incoming req see
system.mem_ctrls.wrQLenPdf::28                      0                       # What write queue length does an incoming req see
system.mem_ctrls.wrQLenPdf::29                      0                       # What write queue length does an incoming req see
system.mem_ctrls.wrQLenPdf::30                      0                       # What write queue length does an incoming req see
system.mem_ctrls.wrQLenPdf::31                      0                       # What write queue length does an incoming req see
system.mem_ctrls.wrQLenPdf::32                      0                       # What write queue length does an incoming req see
system.mem_ctrls.wrQLenPdf::33                      0                       # What write queue length does an incoming req see
system.mem_ctrls.wrQLenPdf::34                      0                       # What write queue length does an incoming req see
system.mem_ctrls.wrQLenPdf::35                      0                       # What write queue length does an incoming req see
system.mem_ctrls.wrQLenPdf::36                      0                       # What write queue length does an incoming req see
system.mem_ctrls.wrQLenPdf::37                      0                       # What write queue length does an incoming req see
system.mem_ctrls.wrQLenPdf::38                      0                       # What write queue length does an incoming req see
system.mem_ctrls.wrQLenPdf::39                      0                       # What write queue length does an incoming req see
system.mem_ctrls.wrQLenPdf::40                      0                       # What write queue length does an incoming req see
system.mem_ctrls.wrQLenPdf::41                      0                       # What write queue length does an incoming req see
system.mem_ctrls.wrQLenPdf::42                      0                       # What write queue length does an incoming req see
system.mem_ctrls.wrQLenPdf::43                      0                       # What write queue length does an incoming req see
system.mem_ctrls.wrQLenPdf::44                      0                       # What write queue length does an incoming req see
system.mem_ctrls.wrQLenPdf::45                      0                       # What write queue length does an incoming req see
system.mem_ctrls.wrQLenPdf::46                      0                       # What write queue length does an incoming req see
system.mem_ctrls.wrQLenPdf::47                      0                       # What write queue length does an incoming req see
system.mem_ctrls.wrQLenPdf::48                      0                       # What write queue length does an incoming req see
system.mem_ctrls.wrQLenPdf::49                      0                       # What write queue length does an incoming req see
system.mem_ctrls.wrQLenPdf::50                      0                       # What write queue length does an incoming req see
system.mem_ctrls.wrQLenPdf::51                      0                       # What write queue length does an incoming req see
system.mem_ctrls.wrQLenPdf::52                      0                       # What write queue length does an incoming req see
system.mem_ctrls.wrQLenPdf::53                      0                       # What write queue length does an incoming req see
system.mem_ctrls.wrQLenPdf::54                      0                       # What write queue length does an incoming req see
system.mem_ctrls.wrQLenPdf::55                      0                       # What write queue length does an incoming req see
system.mem_ctrls.wrQLenPdf::56                      0                       # What write queue length does an incoming req see
system.mem_ctrls.wrQLenPdf::57                      0                       # What write queue length does an incoming req see
system.mem_ctrls.wrQLenPdf::58                      0                       # What write queue length does an incoming req see
system.mem_ctrls.wrQLenPdf::59                      0                       # What write queue length does an incoming req see
system.mem_ctrls.wrQLenPdf::60                      0                       # What write queue length does an incoming req see
system.mem_ctrls.wrQLenPdf::61                      0                       # What write queue length does an incoming req see
system.mem_ctrls.wrQLenPdf::62                      0                       # What write queue length does an incoming req see
system.mem_ctrls.wrQLenPdf::63                      0                       # What write queue length does an incoming req see
system.mem_ctrls.bytesPerActivate::samples         4221                       # Bytes accessed per row activation
system.mem_ctrls.bytesPerActivate::mean    290.069652                       # Bytes accessed per row activation
system.mem_ctrls.bytesPerActivate::gmean   199.845502                       # Bytes accessed per row activation
system.mem_ctrls.bytesPerActivate::stdev   200.000967                       # Bytes accessed per row activation
system.mem_ctrls.bytesPerActivate::0-63             3      0.07%      0.07% # Bytes accessed per row activation
system.mem_ctrls.bytesPerActivate::64-127         1614     38.24%     38.31% # Bytes accessed per row activation
system.mem_ctrls.bytesPerActivate::128-191          179      4.24%     42.55% # Bytes accessed per row activation
system.mem_ctrls.bytesPerActivate::192-255          134      3.17%     45.72% # Bytes accessed per row activation
system.mem_ctrls.bytesPerActivate::256-319           79      1.87%     47.60% # Bytes accessed per row activation
system.mem_ctrls.bytesPerActivate::320-383           56      1.33%     48.92% # Bytes accessed per row activation
system.mem_ctrls.bytesPerActivate::384-447           37      0.88%     49.80% # Bytes accessed per row activation
system.mem_ctrls.bytesPerActivate::448-511         1016     24.07%     73.87% # Bytes accessed per row activation
system.mem_ctrls.bytesPerActivate::512-575         1103     26.13%    100.00% # Bytes accessed per row activation
system.mem_ctrls.bytesPerActivate::total         4221                       # Bytes accessed per row activation
system.mem_ctrls.masterReadBytes::.cpu.inst        74048                       # Per-master bytes read from memory
system.mem_ctrls.masterReadBytes::.cpu.data      1150464                       # Per-master bytes read from memory
system.mem_ctrls.masterReadRate::.cpu.inst 1988112.404494527960                       # Per-master bytes read from memory rate (Bytes/sec)
system.mem_ctrls.masterReadRate::.cpu.data 30888771.463434427977                       # Per-master bytes read from memory rate (Bytes/sec)
system.mem_ctrls.masterReadAccesses::.cpu.inst         2314                       # Per-master read serviced memory accesses
system.mem_ctrls.masterReadAccesses::.cpu.data        35952                       # Per-master read serviced memory accesses
system.mem_ctrls.masterReadTotalLat::.cpu.inst    103518000                       # Per-master read total memory access latency
system.mem_ctrls.masterReadTotalLat::.cpu.data   1916008000                       # Per-master read total memory access latency
system.mem_ctrls.masterReadAvgLat::.cpu.inst     44735.52                       # Per-master read average memory access latency
system.mem_ctrls.masterReadAvgLat::.cpu.data     53293.50                       # Per-master read average memory access latency
system.mem_ctrls.totQLat                   1292472000                       # Total ticks spent queuing
system.mem_ctrls.totMemAccLat              2019526000                       # Total ticks spent from burst creation until serviced by the DRAM
system.mem_ctrls.totBusLat                  153064000                       # Total ticks spent in databus transfers
system.mem_ctrls.avgQLat                     33775.99                       # Average queueing delay per DRAM burst
system.mem_ctrls.avgBusLat                    4000.00                       # Average bus latency per DRAM burst
system.mem_ctrls.avgMemAccLat                52775.99                       # Average memory access latency per DRAM burst
system.mem_ctrls.avgRdBW                        32.88                       # Average DRAM read bandwidth in MiByte/s
system.mem_ctrls.avgWrBW                         0.00                       # Average achieved write bandwidth in MiByte/s
system.mem_ctrls.avgRdBWSys                     32.88                       # Average system read bandwidth in MiByte/s
system.mem_ctrls.avgWrBWSys                      0.00                       # Average system write bandwidth in MiByte/s
system.mem_ctrls.peakBW                       8000.00                       # Theoretical peak bandwidth in MiByte/s
system.mem_ctrls.busUtil                         0.41                       # Data bus utilization in percentage
system.mem_ctrls.busUtilRead                     0.41                       # Data bus utilization in percentage for reads
system.mem_ctrls.busUtilWrite                    0.00                       # Data bus utilization in percentage for writes
system.mem_ctrls.avgRdQLen                       2.00                       # Average read queue length when enqueuing
system.mem_ctrls.avgWrQLen                       0.00                       # Average write queue length when enqueuing
system.mem_ctrls.readRowHits                    34044                       # Number of row buffer hits during reads
system.mem_ctrls.writeRowHits                       0                       # Number of row buffer hits during writes
system.mem_ctrls.readRowHitRate                 88.97                       # Row buffer hit rate for reads
system.mem_ctrls.writeRowHitRate                  nan                       # Row buffer hit rate for writes
system.mem_ctrls.avgGap                    1946650.13                       # Average gap between requests
system.mem_ctrls.pageHitRate                    88.97                       # Row buffer hit rate, read and write combined
system.mem_ctrls_0.actEnergy                        0                       # Energy for activate commands per rank (pJ)
system.mem_ctrls_0.preEnergy                        0                       # Energy for precharge commands per rank (pJ)
system.mem_ctrls_0.readEnergy                       0                       # Energy for read commands per rank (pJ)
system.mem_ctrls_0.writeEnergy                      0                       # Energy for write commands per rank (pJ)
system.mem_ctrls_0.refreshEnergy                    0                       # Energy for refresh commands per rank (pJ)
system.mem_ctrls_0.actBackEnergy                    0                       # Energy for active background per rank (pJ)
system.mem_ctrls_0.preBackEnergy                    0                       # Energy for precharge background per rank (pJ)
system.mem_ctrls_0.actPowerDownEnergy               0                       # Energy for active power-down per rank (pJ)
system.mem_ctrls_0.prePowerDownEnergy               0                       # Energy for precharge power-down per rank (pJ)
system.mem_ctrls_0.selfRefreshEnergy                0                       # Energy for self refresh per rank (pJ)
system.mem_ctrls_0.totalEnergy                      0                       # Total energy per rank (pJ)
system.mem_ctrls_0.averagePower                     0                       # Core power per rank (mW)
system.mem_ctrls_0.totalIdleTime          35875641500                       # Total Idle time Per DRAM Rank
system.mem_ctrls_0.memoryStateTime::IDLE     94649000                       # Time in different power states
system.mem_ctrls_0.memoryStateTime::REF     558740000                       # Time in different power states
system.mem_ctrls_0.memoryStateTime::SREF  28822210000                       # Time in different power states
system.mem_ctrls_0.memoryStateTime::PRE_PDN    144361000                       # Time in different power states
system.mem_ctrls_0.memoryStateTime::ACT     716283500                       # Time in different power states
system.mem_ctrls_0.memoryStateTime::ACT_PDN   6909135500                       # Time in different power states
system.pwrStateResidencyTicks::UNDEFINED  37245379000                       # Cumulative time (in ticks) in various power states
system.cpu.branchPred.lookups                      78                       # Number of BP lookups
system.cpu.branchPred.condPredicted                78                       # Number of conditional branches predicted
system.cpu.branchPred.condIncorrect                31                       # Number of conditional branches incorrect
system.cpu.branchPred.BTBLookups                   45                       # Number of BTB lookups
system.cpu.branchPred.BTBHits                       0                       # Number of BTB hits
system.cpu.branchPred.BTBCorrect                    0                       # Number of correct BTB predictions (this stat may not work properly.
system.cpu.branchPred.BTBHitPct              0.000000                       # BTB Hit Percentage
system.cpu.branchPred.usedRAS                       0                       # Number of times the RAS was used to get a target.
system.cpu.branchPred.RASInCorrect                  0                       # Number of incorrect RAS predictions.
system.cpu.branchPred.indirectLookups              45                       # Number of indirect predictor lookups.
system.cpu.branchPred.indirectHits                  0                       # Number of indirect target hits.
system.cpu.branchPred.indirectMisses               45                       # Number of indirect misses.
system.cpu.branchPredindirectMispredicted           16                       # Number of mispredicted indirect branches.
system.cpu_voltage_domain.voltage                   1                       # Voltage in Volts
system.cpu_clk_domain.clock                      1000                       # Clock period in ticks
system.cpu.dtb.walker.pwrStateResidencyTicks::UNDEFINED  37245379000                       # Cumulative time (in ticks) in various power states
system.cpu.dtb.rdAccesses                      171115                       # TLB accesses on read requests
system.cpu.dtb.wrAccesses                     2208816                       # TLB accesses on write requests
system.cpu.dtb.rdMisses                          2122                       # TLB misses on read requests
system.cpu.dtb.wrMisses                         41005                       # TLB misses on write requests
system.cpu.apic_clk_domain.clock                16000                       # Clock period in ticks
system.cpu.interrupts.pwrStateResidencyTicks::UNDEFINED  37245379000                       # Cumulative time (in ticks) in various power states
system.cpu.itb.walker.pwrStateResidencyTicks::UNDEFINED  37245379000                       # Cumulative time (in ticks) in various power states
system.cpu.itb.rdAccesses                           0                       # TLB accesses on read requests
system.cpu.itb.wrAccesses                     6902049                       # TLB accesses on write requests
system.cpu.itb.rdMisses                             0                       # TLB misses on read requests
system.cpu.itb.wrMisses                            90                       # TLB misses on write requests
system.cpu.workload.numSyscalls                    32                       # Number of system calls
system.cpu.pwrStateResidencyTicks::ON     37245379000                       # Cumulative time (in ticks) in various power states
system.cpu.numCycles                         37245379                       # number of cpu cycles simulated
system.cpu.numWorkItemsStarted                      0                       # number of work items this cpu started
system.cpu.numWorkItemsCompleted                    0                       # number of work items this cpu completed
system.cpu.committedInsts                    12389450                       # Number of instructions committed
system.cpu.committedOps                      20364678                       # Number of ops (including micro ops) committed
system.cpu.discardedOps                      11403156                       # Number of ops (including micro ops) which were discarded before commit
system.cpu.numFetchSuspends                         0                       # Number of times Execute suspended instruction fetching
system.cpu.cpi                               3.006217                       # CPI: cycles per instruction
system.cpu.ipc                               0.332644                       # IPC: instructions per cycle
system.cpu.op_class_0::No_OpClass                1498      0.01%      0.01% # Class of committed instruction
system.cpu.op_class_0::IntAlu                16488741     80.97%     80.97% # Class of committed instruction
system.cpu.op_class_0::IntMult                   1015      0.00%     80.98% # Class of committed instruction
system.cpu.op_class_0::IntDiv                    1142      0.01%     80.99% # Class of committed instruction
system.cpu.op_class_0::FloatAdd                    29      0.00%     80.99% # Class of committed instruction
system.cpu.op_class_0::FloatCmp                     0      0.00%     80.99% # Class of committed instruction
system.cpu.op_class_0::FloatCvt                     0      0.00%     80.99% # Class of committed instruction
system.cpu.op_class_0::FloatMult                    0      0.00%     80.99% # Class of committed instruction
system.cpu.op_class_0::FloatMultAcc                 0      0.00%     80.99% # Class of committed instruction
system.cpu.op_class_0::FloatDiv                     0      0.00%     80.99% # Class of committed instruction
system.cpu.op_class_0::FloatMisc                    0      0.00%     80.99% # Class of committed instruction
system.cpu.op_class_0::FloatSqrt                    0      0.00%     80.99% # Class of committed instruction
system.cpu.op_class_0::SimdAdd                 500322      2.46%     83.44% # Class of committed instruction
system.cpu.op_class_0::SimdAddAcc                   0      0.00%     83.44% # Class of committed instruction
system.cpu.op_class_0::SimdAlu                 125493      0.62%     84.06% # Class of committed instruction
system.cpu.op_class_0::SimdCmp                      6      0.00%     84.06% # Class of committed instruction
system.cpu.op_class_0::SimdCvt                 125754      0.62%     84.68% # Class of committed instruction
system.cpu.op_class_0::SimdMisc                750531      3.69%     88.36% # Class of committed instruction
system.cpu.op_class_0::SimdMult                     0      0.00%     88.36% # Class of committed instruction
system.cpu.op_class_0::SimdMultAcc                  0      0.00%     88.36% # Class of committed instruction
system.cpu.op_class_0::SimdShift                  183      0.00%     88.36% # Class of committed instruction
system.cpu.op_class_0::SimdShiftAcc                 0      0.00%     88.36% # Class of committed instruction
system.cpu.op_class_0::SimdSqrt                     0      0.00%     88.36% # Class of committed instruction
system.cpu.op_class_0::SimdFloatAdd                 0      0.00%     88.36% # Class of committed instruction
system.cpu.op_class_0::SimdFloatAlu                 0      0.00%     88.36% # Class of committed instruction
system.cpu.op_class_0::SimdFloatCmp                 0      0.00%     88.36% # Class of committed instruction
system.cpu.op_class_0::SimdFloatCvt                 0      0.00%     88.36% # Class of committed instruction
system.cpu.op_class_0::SimdFloatDiv                 0      0.00%     88.36% # Class of committed instruction
system.cpu.op_class_0::SimdFloatMisc                0      0.00%     88.36% # Class of committed instruction
system.cpu.op_class_0::SimdFloatMult                0      0.00%     88.36% # Class of committed instruction
system.cpu.op_class_0::SimdFloatMultAcc             0      0.00%     88.36% # Class of committed instruction
system.cpu.op_class_0::SimdFloatSqrt                0      0.00%     88.36% # Class of committed instruction
system.cpu.op_class_0::SimdAes                      0      0.00%     88.36% # Class of committed instruction
system.cpu.op_class_0::SimdAesMix                   0      0.00%     88.36% # Class of committed instruction
system.cpu.op_class_0::SimdSha1Hash                 0      0.00%     88.36% # Class of committed instruction
system.cpu.op_class_0::SimdSha1Hash2                0      0.00%     88.36% # Class of committed instruction
system.cpu.op_class_0::SimdSha256Hash               0      0.00%     88.36% # Class of committed instruction
system.cpu.op_class_0::SimdSha256Hash2              0      0.00%     88.36% # Class of committed instruction
system.cpu.op_class_0::SimdShaSigma2                0      0.00%     88.36% # Class of committed instruction
system.cpu.op_class_0::SimdShaSigma3                0      0.00%     88.36% # Class of committed instruction
system.cpu.op_class_0::MemRead                  35572      0.17%     88.54% # Class of committed instruction
system.cpu.op_class_0::MemWrite               2208198     10.84%     99.38% # Class of committed instruction
system.cpu.op_class_0::FloatMemRead            125810      0.62%    100.00% # Class of committed instruction
system.cpu.op_class_0::FloatMemWrite              384      0.00%    100.00% # Class of committed instruction
system.cpu.op_class_0::IprAccess                    0      0.00%    100.00% # Class of committed instruction
system.cpu.op_class_0::InstPrefetch                 0      0.00%    100.00% # Class of committed instruction
system.cpu.op_class_0::total                 20364678                       # Class of committed instruction
system.cpu.tickCycles                        35683851                       # Number of cycles that the object actually ticked
system.cpu.idleCycles                         1561528                       # Total number of cycles that the object has spent stopped
system.cpu.fetch2.int_instructions                 82                       # Number of integer instructions successfully decoded
system.cpu.fetch2.fp_instructions                   0                       # Number of floating point instructions successfully decoded
system.cpu.fetch2.vec_instructions                  0                       # Number of SIMD instructions successfully decoded
system.cpu.fetch2.load_instructions                 0                       # Number of memory load instructions successfully decoded
system.cpu.fetch2.store_instructions                0                       # Number of memory store instructions successfully decoded
system.cpu.dcache.tags.pwrStateResidencyTicks::UNDEFINED  37245379000                       # Cumulative time (in ticks) in various power states
system.cpu.dcache.tags.tagsinuse          1019.501655                       # Cycle average of tags in use
system.cpu.dcache.tags.total_refs             2166917                       # Total number of references to valid blocks.
system.cpu.dcache.tags.sampled_refs            781028                       # Sample count of references to valid blocks.
system.cpu.dcache.tags.avg_refs              2.774442                       # Average number of references to valid blocks.
system.cpu.dcache.tags.warmup_cycle            239000                       # Cycle when the warmup percentage was hit.
system.cpu.dcache.tags.occ_blocks::.cpu.data  1019.501655                       # Average occupied blocks per requestor
system.cpu.dcache.tags.occ_percent::.cpu.data     0.995607                       # Average percentage of cache occupancy
system.cpu.dcache.tags.occ_percent::total     0.995607                       # Average percentage of cache occupancy
system.cpu.dcache.tags.occ_task_id_blocks::1024         1024                       # Occupied blocks per task id
system.cpu.dcache.tags.age_task_id_blocks_1024::0           35                       # Occupied blocks per task id
system.cpu.dcache.tags.age_task_id_blocks_1024::1          314                       # Occupied blocks per task id
system.cpu.dcache.tags.age_task_id_blocks_1024::2          675                       # Occupied blocks per task id
system.cpu.dcache.tags.occ_task_id_percent::1024            1                       # Percentage of cache occupancy per task id
system.cpu.dcache.tags.tag_accesses           5536858                       # Number of tag accesses
system.cpu.dcache.tags.data_accesses          5536858                       # Number of data accesses
system.cpu.dcache.pwrStateResidencyTicks::UNDEFINED  37245379000                       # Cumulative time (in ticks) in various power states
system.cpu.dcache.ReadReq_hits::.cpu.data       151404                       # number of ReadReq hits
system.cpu.dcache.ReadReq_hits::total          151404                       # number of ReadReq hits
system.cpu.dcache.WriteReq_hits::.cpu.data      1234485                       # number of WriteReq hits
system.cpu.dcache.WriteReq_hits::total        1234485                       # number of WriteReq hits
system.cpu.dcache.demand_hits::.cpu.data      1385889                       # number of demand (read+write) hits
system.cpu.dcache.demand_hits::total          1385889                       # number of demand (read+write) hits
system.cpu.dcache.overall_hits::.cpu.data      1385889                       # number of overall hits
system.cpu.dcache.overall_hits::total         1385889                       # number of overall hits
system.cpu.dcache.ReadReq_misses::.cpu.data        17929                       # number of ReadReq misses
system.cpu.dcache.ReadReq_misses::total         17929                       # number of ReadReq misses
system.cpu.dcache.WriteReq_misses::.cpu.data       974097                       # number of WriteReq misses
system.cpu.dcache.WriteReq_misses::total       974097                       # number of WriteReq misses
system.cpu.dcache.demand_misses::.cpu.data       992026                       # number of demand (read+write) misses
system.cpu.dcache.demand_misses::total         992026                       # number of demand (read+write) misses
system.cpu.dcache.overall_misses::.cpu.data       992026                       # number of overall misses
system.cpu.dcache.overall_misses::total        992026                       # number of overall misses
system.cpu.dcache.ReadReq_miss_latency::.cpu.data    653458000                       # number of ReadReq miss cycles
system.cpu.dcache.ReadReq_miss_latency::total    653458000                       # number of ReadReq miss cycles
system.cpu.dcache.WriteReq_miss_latency::.cpu.data  26191067000                       # number of WriteReq miss cycles
system.cpu.dcache.WriteReq_miss_latency::total  26191067000                       # number of WriteReq miss cycles
system.cpu.dcache.demand_miss_latency::.cpu.data  26844525000                       # number of demand (read+write) miss cycles
system.cpu.dcache.demand_miss_latency::total  26844525000                       # number of demand (read+write) miss cycles
system.cpu.dcache.overall_miss_latency::.cpu.data  26844525000                       # number of overall miss cycles
system.cpu.dcache.overall_miss_latency::total  26844525000                       # number of overall miss cycles
system.cpu.dcache.ReadReq_accesses::.cpu.data       169333                       # number of ReadReq accesses(hits+misses)
system.cpu.dcache.ReadReq_accesses::total       169333                       # number of ReadReq accesses(hits+misses)
system.cpu.dcache.WriteReq_accesses::.cpu.data      2208582                       # number of WriteReq accesses(hits+misses)
system.cpu.dcache.WriteReq_accesses::total      2208582                       # number of WriteReq accesses(hits+misses)
system.cpu.dcache.demand_accesses::.cpu.data      2377915                       # number of demand (read+write) accesses
system.cpu.dcache.demand_accesses::total      2377915                       # number of demand (read+write) accesses
system.cpu.dcache.overall_accesses::.cpu.data      2377915                       # number of overall (read+write) accesses
system.cpu.dcache.overall_accesses::total      2377915                       # number of overall (read+write) accesses
system.cpu.dcache.ReadReq_miss_rate::.cpu.data     0.105880                       # miss rate for ReadReq accesses
system.cpu.dcache.ReadReq_miss_rate::total     0.105880                       # miss rate for ReadReq accesses
system.cpu.dcache.WriteReq_miss_rate::.cpu.data     0.441051                       # miss rate for WriteReq accesses
system.cpu.dcache.WriteReq_miss_rate::total     0.441051                       # miss rate for WriteReq accesses
system.cpu.dcache.demand_miss_rate::.cpu.data     0.417183                       # miss rate for demand accesses
system.cpu.dcache.demand_miss_rate::total     0.417183                       # miss rate for demand accesses
system.cpu.dcache.overall_miss_rate::.cpu.data     0.417183                       # miss rate for overall accesses
system.cpu.dcache.overall_miss_rate::total     0.417183                       # miss rate for overall accesses
system.cpu.dcache.ReadReq_avg_miss_latency::.cpu.data 36446.985331                       # average ReadReq miss latency
system.cpu.dcache.ReadReq_avg_miss_latency::total 36446.985331                       # average ReadReq miss latency
system.cpu.dcache.WriteReq_avg_miss_latency::.cpu.data 26887.534814                       # average WriteReq miss latency
system.cpu.dcache.WriteReq_avg_miss_latency::total 26887.534814                       # average WriteReq miss latency
system.cpu.dcache.demand_avg_miss_latency::.cpu.data 27060.303863                       # average overall miss latency
system.cpu.dcache.demand_avg_miss_latency::total 27060.303863                       # average overall miss latency
system.cpu.dcache.overall_avg_miss_latency::.cpu.data 27060.303863                       # average overall miss latency
system.cpu.dcache.overall_avg_miss_latency::total 27060.303863                       # average overall miss latency
system.cpu.dcache.blocked_cycles::no_mshrs            0                       # number of cycles access was blocked
system.cpu.dcache.blocked_cycles::no_targets            0                       # number of cycles access was blocked
system.cpu.dcache.blocked::no_mshrs                 0                       # number of cycles access was blocked
system.cpu.dcache.blocked::no_targets               0                       # number of cycles access was blocked
system.cpu.dcache.avg_blocked_cycles::no_mshrs          nan                       # average number of cycles each access was blocked
system.cpu.dcache.avg_blocked_cycles::no_targets          nan                       # average number of cycles each access was blocked
system.cpu.dcache.writebacks::.writebacks       778107                       # number of writebacks
system.cpu.dcache.writebacks::total            778107                       # number of writebacks
system.cpu.dcache.ReadReq_mshr_hits::.cpu.data           26                       # number of ReadReq MSHR hits
system.cpu.dcache.ReadReq_mshr_hits::total           26                       # number of ReadReq MSHR hits
system.cpu.dcache.WriteReq_mshr_hits::.cpu.data       210972                       # number of WriteReq MSHR hits
system.cpu.dcache.WriteReq_mshr_hits::total       210972                       # number of WriteReq MSHR hits
system.cpu.dcache.demand_mshr_hits::.cpu.data       210998                       # number of demand (read+write) MSHR hits
system.cpu.dcache.demand_mshr_hits::total       210998                       # number of demand (read+write) MSHR hits
system.cpu.dcache.overall_mshr_hits::.cpu.data       210998                       # number of overall MSHR hits
system.cpu.dcache.overall_mshr_hits::total       210998                       # number of overall MSHR hits
system.cpu.dcache.ReadReq_mshr_misses::.cpu.data        17903                       # number of ReadReq MSHR misses
system.cpu.dcache.ReadReq_mshr_misses::total        17903                       # number of ReadReq MSHR misses
system.cpu.dcache.WriteReq_mshr_misses::.cpu.data       763125                       # number of WriteReq MSHR misses
system.cpu.dcache.WriteReq_mshr_misses::total       763125                       # number of WriteReq MSHR misses
system.cpu.dcache.demand_mshr_misses::.cpu.data       781028                       # number of demand (read+write) MSHR misses
system.cpu.dcache.demand_mshr_misses::total       781028                       # number of demand (read+write) MSHR misses
system.cpu.dcache.overall_mshr_misses::.cpu.data       781028                       # number of overall MSHR misses
system.cpu.dcache.overall_mshr_misses::total       781028                       # number of overall MSHR misses
system.cpu.dcache.ReadReq_mshr_miss_latency::.cpu.data    615150000                       # number of ReadReq MSHR miss cycles
system.cpu.dcache.ReadReq_mshr_miss_latency::total    615150000                       # number of ReadReq MSHR miss cycles
system.cpu.dcache.WriteReq_mshr_miss_latency::.cpu.data  20022478000                       # number of WriteReq MSHR miss cycles
system.cpu.dcache.WriteReq_mshr_miss_latency::total  20022478000                       # number of WriteReq MSHR miss cycles
system.cpu.dcache.demand_mshr_miss_latency::.cpu.data  20637628000                       # number of demand (read+write) MSHR miss cycles
system.cpu.dcache.demand_mshr_miss_latency::total  20637628000                       # number of demand (read+write) MSHR miss cycles
system.cpu.dcache.overall_mshr_miss_latency::.cpu.data  20637628000                       # number of overall MSHR miss cycles
system.cpu.dcache.overall_mshr_miss_latency::total  20637628000                       # number of overall MSHR miss cycles
system.cpu.dcache.ReadReq_mshr_miss_rate::.cpu.data     0.105727                       # mshr miss rate for ReadReq accesses
system.cpu.dcache.ReadReq_mshr_miss_rate::total     0.105727                       # mshr miss rate for ReadReq accesses
system.cpu.dcache.WriteReq_mshr_miss_rate::.cpu.data     0.345527                       # mshr miss rate for WriteReq accesses
system.cpu.dcache.WriteReq_mshr_miss_rate::total     0.345527                       # mshr miss rate for WriteReq accesses
system.cpu.dcache.demand_mshr_miss_rate::.cpu.data     0.328451                       # mshr miss rate for demand accesses
system.cpu.dcache.demand_mshr_miss_rate::total     0.328451                       # mshr miss rate for demand accesses
system.cpu.dcache.overall_mshr_miss_rate::.cpu.data     0.328451                       # mshr miss rate for overall accesses
system.cpu.dcache.overall_mshr_miss_rate::total     0.328451                       # mshr miss rate for overall accesses
system.cpu.dcache.ReadReq_avg_mshr_miss_latency::.cpu.data 34360.163101                       # average ReadReq mshr miss latency
system.cpu.dcache.ReadReq_avg_mshr_miss_latency::total 34360.163101                       # average ReadReq mshr miss latency
system.cpu.dcache.WriteReq_avg_mshr_miss_latency::.cpu.data 26237.481409                       # average WriteReq mshr miss latency
system.cpu.dcache.WriteReq_avg_mshr_miss_latency::total 26237.481409                       # average WriteReq mshr miss latency
system.cpu.dcache.demand_avg_mshr_miss_latency::.cpu.data 26423.672391                       # average overall mshr miss latency
system.cpu.dcache.demand_avg_mshr_miss_latency::total 26423.672391                       # average overall mshr miss latency
system.cpu.dcache.overall_avg_mshr_miss_latency::.cpu.data 26423.672391                       # average overall mshr miss latency
system.cpu.dcache.overall_avg_mshr_miss_latency::total 26423.672391                       # average overall mshr miss latency
system.cpu.dcache.replacements                 780004                       # number of replacements
system.cpu.dtb_walker_cache.tags.pwrStateResidencyTicks::UNDEFINED  37245379000                       # Cumulative time (in ticks) in various power states
system.cpu.dtb_walker_cache.tags.tagsinuse            0                       # Cycle average of tags in use
system.cpu.dtb_walker_cache.tags.total_refs            0                       # Total number of references to valid blocks.
system.cpu.dtb_walker_cache.tags.sampled_refs            0                       # Sample count of references to valid blocks.
system.cpu.dtb_walker_cache.tags.avg_refs          nan                       # Average number of references to valid blocks.
system.cpu.dtb_walker_cache.tags.warmup_cycle            0                       # Cycle when the warmup percentage was hit.
system.cpu.dtb_walker_cache.tags.tag_accesses            0                       # Number of tag accesses
system.cpu.dtb_walker_cache.tags.data_accesses            0                       # Number of data accesses
system.cpu.dtb_walker_cache.pwrStateResidencyTicks::UNDEFINED  37245379000                       # Cumulative time (in ticks) in various power states
system.cpu.dtb_walker_cache.blocked_cycles::no_mshrs            0                       # number of cycles access was blocked
system.cpu.dtb_walker_cache.blocked_cycles::no_targets            0                       # number of cycles access was blocked
system.cpu.dtb_walker_cache.blocked::no_mshrs            0                       # number of cycles access was blocked
system.cpu.dtb_walker_cache.blocked::no_targets            0                       # number of cycles access was blocked
system.cpu.dtb_walker_cache.avg_blocked_cycles::no_mshrs          nan                       # average number of cycles each access was blocked
system.cpu.dtb_walker_cache.avg_blocked_cycles::no_targets          nan                       # average number of cycles each access was blocked
system.cpu.dtb_walker_cache.replacements            0                       # number of replacements
system.cpu.icache.tags.pwrStateResidencyTicks::UNDEFINED  37245379000                       # Cumulative time (in ticks) in various power states
system.cpu.icache.tags.tagsinuse           765.106316                       # Cycle average of tags in use
system.cpu.icache.tags.total_refs             6902048                       # Total number of references to valid blocks.
system.cpu.icache.tags.sampled_refs              1176                       # Sample count of references to valid blocks.
system.cpu.icache.tags.avg_refs           5869.088435                       # Average number of references to valid blocks.
system.cpu.icache.tags.warmup_cycle            113000                       # Cycle when the warmup percentage was hit.
system.cpu.icache.tags.occ_blocks::.cpu.inst   765.106316                       # Average occupied blocks per requestor
system.cpu.icache.tags.occ_percent::.cpu.inst     0.747174                       # Average percentage of cache occupancy
system.cpu.icache.tags.occ_percent::total     0.747174                       # Average percentage of cache occupancy
system.cpu.icache.tags.occ_task_id_blocks::1024          854                       # Occupied blocks per task id
system.cpu.icache.tags.age_task_id_blocks_1024::0           63                       # Occupied blocks per task id
system.cpu.icache.tags.age_task_id_blocks_1024::1          171                       # Occupied blocks per task id
system.cpu.icache.tags.age_task_id_blocks_1024::3            2                       # Occupied blocks per task id
system.cpu.icache.tags.age_task_id_blocks_1024::4          618                       # Occupied blocks per task id
system.cpu.icache.tags.occ_task_id_percent::1024     0.833984                       # Percentage of cache occupancy per task id
system.cpu.icache.tags.tag_accesses          13805274                       # Number of tag accesses
system.cpu.icache.tags.data_accesses         13805274                       # Number of data accesses
system.cpu.icache.pwrStateResidencyTicks::UNDEFINED  37245379000                       # Cumulative time (in ticks) in various power states
system.cpu.icache.ReadReq_hits::.cpu.inst      6900872                       # number of ReadReq hits
system.cpu.icache.ReadReq_hits::total         6900872                       # number of ReadReq hits
system.cpu.icache.demand_hits::.cpu.inst      6900872                       # number of demand (read+write) hits
system.cpu.icache.demand_hits::total          6900872                       # number of demand (read+write) hits
system.cpu.icache.overall_hits::.cpu.inst      6900872                       # number of overall hits
system.cpu.icache.overall_hits::total         6900872                       # number of overall hits
system.cpu.icache.ReadReq_misses::.cpu.inst         1177                       # number of ReadReq misses
system.cpu.icache.ReadReq_misses::total          1177                       # number of ReadReq misses
system.cpu.icache.demand_misses::.cpu.inst         1177                       # number of demand (read+write) misses
system.cpu.icache.demand_misses::total           1177                       # number of demand (read+write) misses
system.cpu.icache.overall_misses::.cpu.inst         1177                       # number of overall misses
system.cpu.icache.overall_misses::total          1177                       # number of overall misses
system.cpu.icache.ReadReq_miss_latency::.cpu.inst    142816000                       # number of ReadReq miss cycles
system.cpu.icache.ReadReq_miss_latency::total    142816000                       # number of ReadReq miss cycles
system.cpu.icache.demand_miss_latency::.cpu.inst    142816000                       # number of demand (read+write) miss cycles
system.cpu.icache.demand_miss_latency::total    142816000                       # number of demand (read+write) miss cycles
system.cpu.icache.overall_miss_latency::.cpu.inst    142816000                       # number of overall miss cycles
system.cpu.icache.overall_miss_latency::total    142816000                       # number of overall miss cycles
system.cpu.icache.ReadReq_accesses::.cpu.inst      6902049                       # number of ReadReq accesses(hits+misses)
system.cpu.icache.ReadReq_accesses::total      6902049                       # number of ReadReq accesses(hits+misses)
system.cpu.icache.demand_accesses::.cpu.inst      6902049                       # number of demand (read+write) accesses
system.cpu.icache.demand_accesses::total      6902049                       # number of demand (read+write) accesses
system.cpu.icache.overall_accesses::.cpu.inst      6902049                       # number of overall (read+write) accesses
system.cpu.icache.overall_accesses::total      6902049                       # number of overall (read+write) accesses
system.cpu.icache.ReadReq_miss_rate::.cpu.inst     0.000171                       # miss rate for ReadReq accesses
system.cpu.icache.ReadReq_miss_rate::total     0.000171                       # miss rate for ReadReq accesses
system.cpu.icache.demand_miss_rate::.cpu.inst     0.000171                       # miss rate for demand accesses
system.cpu.icache.demand_miss_rate::total     0.000171                       # miss rate for demand accesses
system.cpu.icache.overall_miss_rate::.cpu.inst     0.000171                       # miss rate for overall accesses
system.cpu.icache.overall_miss_rate::total     0.000171                       # miss rate for overall accesses
system.cpu.icache.ReadReq_avg_miss_latency::.cpu.inst 121338.997451                       # average ReadReq miss latency
system.cpu.icache.ReadReq_avg_miss_latency::total 121338.997451                       # average ReadReq miss latency
system.cpu.icache.demand_avg_miss_latency::.cpu.inst 121338.997451                       # average overall miss latency
system.cpu.icache.demand_avg_miss_latency::total 121338.997451                       # average overall miss latency
system.cpu.icache.overall_avg_miss_latency::.cpu.inst 121338.997451                       # average overall miss latency
system.cpu.icache.overall_avg_miss_latency::total 121338.997451                       # average overall miss latency
system.cpu.icache.blocked_cycles::no_mshrs            0                       # number of cycles access was blocked
system.cpu.icache.blocked_cycles::no_targets            0                       # number of cycles access was blocked
system.cpu.icache.blocked::no_mshrs                 0                       # number of cycles access was blocked
system.cpu.icache.blocked::no_targets               0                       # number of cycles access was blocked
system.cpu.icache.avg_blocked_cycles::no_mshrs          nan                       # average number of cycles each access was blocked
system.cpu.icache.avg_blocked_cycles::no_targets          nan                       # average number of cycles each access was blocked
system.cpu.icache.writebacks::.writebacks          322                       # number of writebacks
system.cpu.icache.writebacks::total               322                       # number of writebacks
system.cpu.icache.ReadReq_mshr_misses::.cpu.inst         1177                       # number of ReadReq MSHR misses
system.cpu.icache.ReadReq_mshr_misses::total         1177                       # number of ReadReq MSHR misses
system.cpu.icache.demand_mshr_misses::.cpu.inst         1177                       # number of demand (read+write) MSHR misses
system.cpu.icache.demand_mshr_misses::total         1177                       # number of demand (read+write) MSHR misses
system.cpu.icache.overall_mshr_misses::.cpu.inst         1177                       # number of overall MSHR misses
system.cpu.icache.overall_mshr_misses::total         1177                       # number of overall MSHR misses
system.cpu.icache.ReadReq_mshr_miss_latency::.cpu.inst    140464000                       # number of ReadReq MSHR miss cycles
system.cpu.icache.ReadReq_mshr_miss_latency::total    140464000                       # number of ReadReq MSHR miss cycles
system.cpu.icache.demand_mshr_miss_latency::.cpu.inst    140464000                       # number of demand (read+write) MSHR miss cycles
system.cpu.icache.demand_mshr_miss_latency::total    140464000                       # number of demand (read+write) MSHR miss cycles
system.cpu.icache.overall_mshr_miss_latency::.cpu.inst    140464000                       # number of overall MSHR miss cycles
system.cpu.icache.overall_mshr_miss_latency::total    140464000                       # number of overall MSHR miss cycles
system.cpu.icache.ReadReq_mshr_miss_rate::.cpu.inst     0.000171                       # mshr miss rate for ReadReq accesses
system.cpu.icache.ReadReq_mshr_miss_rate::total     0.000171                       # mshr miss rate for ReadReq accesses
system.cpu.icache.demand_mshr_miss_rate::.cpu.inst     0.000171                       # mshr miss rate for demand accesses
system.cpu.icache.demand_mshr_miss_rate::total     0.000171                       # mshr miss rate for demand accesses
system.cpu.icache.overall_mshr_miss_rate::.cpu.inst     0.000171                       # mshr miss rate for overall accesses
system.cpu.icache.overall_mshr_miss_rate::total     0.000171                       # mshr miss rate for overall accesses
system.cpu.icache.ReadReq_avg_mshr_miss_latency::.cpu.inst 119340.696686                       # average ReadReq mshr miss latency
system.cpu.icache.ReadReq_avg_mshr_miss_latency::total 119340.696686                       # average ReadReq mshr miss latency
system.cpu.icache.demand_avg_mshr_miss_latency::.cpu.inst 119340.696686                       # average overall mshr miss latency
system.cpu.icache.demand_avg_mshr_miss_latency::total 119340.696686                       # average overall mshr miss latency
system.cpu.icache.overall_avg_mshr_miss_latency::.cpu.inst 119340.696686                       # average overall mshr miss latency
system.cpu.icache.overall_avg_mshr_miss_latency::total 119340.696686                       # average overall mshr miss latency
system.cpu.icache.replacements                    322                       # number of replacements
system.cpu.itb_walker_cache.tags.pwrStateResidencyTicks::UNDEFINED  37245379000                       # Cumulative time (in ticks) in various power states
system.cpu.itb_walker_cache.tags.tagsinuse            0                       # Cycle average of tags in use
system.cpu.itb_walker_cache.tags.total_refs            0                       # Total number of references to valid blocks.
system.cpu.itb_walker_cache.tags.sampled_refs            0                       # Sample count of references to valid blocks.
system.cpu.itb_walker_cache.tags.avg_refs          nan                       # Average number of references to valid blocks.
system.cpu.itb_walker_cache.tags.warmup_cycle            0                       # Cycle when the warmup percentage was hit.
system.cpu.itb_walker_cache.tags.tag_accesses            0                       # Number of tag accesses
system.cpu.itb_walker_cache.tags.data_accesses            0                       # Number of data accesses
system.cpu.itb_walker_cache.pwrStateResidencyTicks::UNDEFINED  37245379000                       # Cumulative time (in ticks) in various power states
system.cpu.itb_walker_cache.blocked_cycles::no_mshrs            0                       # number of cycles access was blocked
system.cpu.itb_walker_cache.blocked_cycles::no_targets            0                       # number of cycles access was blocked
system.cpu.itb_walker_cache.blocked::no_mshrs            0                       # number of cycles access was blocked
system.cpu.itb_walker_cache.blocked::no_targets            0                       # number of cycles access was blocked
system.cpu.itb_walker_cache.avg_blocked_cycles::no_mshrs          nan                       # average number of cycles each access was blocked
system.cpu.itb_walker_cache.avg_blocked_cycles::no_targets          nan                       # average number of cycles each access was blocked
system.cpu.itb_walker_cache.replacements            0                       # number of replacements
system.l2.tags.pwrStateResidencyTicks::UNDEFINED  37245379000                       # Cumulative time (in ticks) in various power states
system.l2.tags.tagsinuse                 16874.831802                       # Cycle average of tags in use
system.l2.tags.total_refs                     1562524                       # Total number of references to valid blocks.
system.l2.tags.sampled_refs                     19133                       # Sample count of references to valid blocks.
system.l2.tags.avg_refs                     81.666440                       # Average number of references to valid blocks.
system.l2.tags.warmup_cycle                     92000                       # Cycle when the warmup percentage was hit.
system.l2.tags.occ_blocks::.cpu.inst       912.036591                       # Average occupied blocks per requestor
system.l2.tags.occ_blocks::.cpu.data     15962.795211                       # Average occupied blocks per requestor
system.l2.tags.occ_percent::.cpu.inst        0.027833                       # Average percentage of cache occupancy
system.l2.tags.occ_percent::.cpu.data        0.487146                       # Average percentage of cache occupancy
system.l2.tags.occ_percent::total            0.514979                       # Average percentage of cache occupancy
system.l2.tags.occ_task_id_blocks::1024         19133                       # Occupied blocks per task id
system.l2.tags.age_task_id_blocks_1024::0           66                       # Occupied blocks per task id
system.l2.tags.age_task_id_blocks_1024::1          185                       # Occupied blocks per task id
system.l2.tags.age_task_id_blocks_1024::3            5                       # Occupied blocks per task id
system.l2.tags.age_task_id_blocks_1024::4        18877                       # Occupied blocks per task id
system.l2.tags.occ_task_id_percent::1024     0.583893                       # Percentage of cache occupancy per task id
system.l2.tags.tag_accesses                  12519333                       # Number of tag accesses
system.l2.tags.data_accesses                 12519333                       # Number of data accesses
system.l2.pwrStateResidencyTicks::UNDEFINED  37245379000                       # Cumulative time (in ticks) in various power states
system.l2.WritebackDirty_hits::.writebacks       778107                       # number of WritebackDirty hits
system.l2.WritebackDirty_hits::total           778107                       # number of WritebackDirty hits
system.l2.WritebackClean_hits::.writebacks          321                       # number of WritebackClean hits
system.l2.WritebackClean_hits::total              321                       # number of WritebackClean hits
system.l2.ReadExReq_hits::.cpu.data            747028                       # number of ReadExReq hits
system.l2.ReadExReq_hits::total                747028                       # number of ReadExReq hits
system.l2.ReadCleanReq_hits::.cpu.inst             19                       # number of ReadCleanReq hits
system.l2.ReadCleanReq_hits::total                 19                       # number of ReadCleanReq hits
system.l2.ReadSharedReq_hits::.cpu.data         16024                       # number of ReadSharedReq hits
system.l2.ReadSharedReq_hits::total             16024                       # number of ReadSharedReq hits
system.l2.demand_hits::.cpu.inst                   19                       # number of demand (read+write) hits
system.l2.demand_hits::.cpu.data               763052                       # number of demand (read+write) hits
system.l2.demand_hits::total                   763071                       # number of demand (read+write) hits
system.l2.overall_hits::.cpu.inst                  19                       # number of overall hits
system.l2.overall_hits::.cpu.data              763052                       # number of overall hits
system.l2.overall_hits::total                  763071                       # number of overall hits
system.l2.ReadExReq_misses::.cpu.data           16097                       # number of ReadExReq misses
system.l2.ReadExReq_misses::total               16097                       # number of ReadExReq misses
system.l2.ReadCleanReq_misses::.cpu.inst         1158                       # number of ReadCleanReq misses
system.l2.ReadCleanReq_misses::total             1158                       # number of ReadCleanReq misses
system.l2.ReadSharedReq_misses::.cpu.data         1879                       # number of ReadSharedReq misses
system.l2.ReadSharedReq_misses::total            1879                       # number of ReadSharedReq misses
system.l2.demand_misses::.cpu.inst               1158                       # number of demand (read+write) misses
system.l2.demand_misses::.cpu.data              17976                       # number of demand (read+write) misses
system.l2.demand_misses::total                  19134                       # number of demand (read+write) misses
system.l2.overall_misses::.cpu.inst              1158                       # number of overall misses
system.l2.overall_misses::.cpu.data             17976                       # number of overall misses
system.l2.overall_misses::total                 19134                       # number of overall misses
system.l2.ReadExReq_miss_latency::.cpu.data   2045494000                       # number of ReadExReq miss cycles
system.l2.ReadExReq_miss_latency::total    2045494000                       # number of ReadExReq miss cycles
system.l2.ReadCleanReq_miss_latency::.cpu.inst    136528000                       # number of ReadCleanReq miss cycles
system.l2.ReadCleanReq_miss_latency::total    136528000                       # number of ReadCleanReq miss cycles
system.l2.ReadSharedReq_miss_latency::.cpu.data    224918000                       # number of ReadSharedReq miss cycles
system.l2.ReadSharedReq_miss_latency::total    224918000                       # number of ReadSharedReq miss cycles
system.l2.demand_miss_latency::.cpu.inst    136528000                       # number of demand (read+write) miss cycles
system.l2.demand_miss_latency::.cpu.data   2270412000                       # number of demand (read+write) miss cycles
system.l2.demand_miss_latency::total       2406940000                       # number of demand (read+write) miss cycles
system.l2.overall_miss_latency::.cpu.inst    136528000                       # number of overall miss cycles
system.l2.overall_miss_latency::.cpu.data   2270412000                       # number of overall miss cycles
system.l2.overall_miss_latency::total      2406940000                       # number of overall miss cycles
system.l2.WritebackDirty_accesses::.writebacks       778107                       # number of WritebackDirty accesses(hits+misses)
system.l2.WritebackDirty_accesses::total       778107                       # number of WritebackDirty accesses(hits+misses)
system.l2.WritebackClean_accesses::.writebacks          321                       # number of WritebackClean accesses(hits+misses)
system.l2.WritebackClean_accesses::total          321                       # number of WritebackClean accesses(hits+misses)
system.l2.ReadExReq_accesses::.cpu.data        763125                       # number of ReadExReq accesses(hits+misses)
system.l2.ReadExReq_accesses::total            763125                       # number of ReadExReq accesses(hits+misses)
system.l2.ReadCleanReq_accesses::.cpu.inst         1177                       # number of ReadCleanReq accesses(hits+misses)
system.l2.ReadCleanReq_accesses::total           1177                       # number of ReadCleanReq accesses(hits+misses)
system.l2.ReadSharedReq_accesses::.cpu.data        17903                       # number of ReadSharedReq accesses(hits+misses)
system.l2.ReadSharedReq_accesses::total         17903                       # number of ReadSharedReq accesses(hits+misses)
system.l2.demand_accesses::.cpu.inst             1177                       # number of demand (read+write) accesses
system.l2.demand_accesses::.cpu.data           781028                       # number of demand (read+write) accesses
system.l2.demand_accesses::total               782205                       # number of demand (read+write) accesses
system.l2.overall_accesses::.cpu.inst            1177                       # number of overall (read+write) accesses
system.l2.overall_accesses::.cpu.data          781028                       # number of overall (read+write) accesses
system.l2.overall_accesses::total              782205                       # number of overall (read+write) accesses
system.l2.ReadExReq_miss_rate::.cpu.data     0.021094                       # miss rate for ReadExReq accesses
system.l2.ReadExReq_miss_rate::total         0.021094                       # miss rate for ReadExReq accesses
system.l2.ReadCleanReq_miss_rate::.cpu.inst     0.983857                       # miss rate for ReadCleanReq accesses
system.l2.ReadCleanReq_miss_rate::total      0.983857                       # miss rate for ReadCleanReq accesses
system.l2.ReadSharedReq_miss_rate::.cpu.data     0.104954                       # miss rate for ReadSharedReq accesses
system.l2.ReadSharedReq_miss_rate::total     0.104954                       # miss rate for ReadSharedReq accesses
system.l2.demand_miss_rate::.cpu.inst        0.983857                       # miss rate for demand accesses
system.l2.demand_miss_rate::.cpu.data        0.023016                       # miss rate for demand accesses
system.l2.demand_miss_rate::total            0.024462                       # miss rate for demand accesses
system.l2.overall_miss_rate::.cpu.inst       0.983857                       # miss rate for overall accesses
system.l2.overall_miss_rate::.cpu.data       0.023016                       # miss rate for overall accesses
system.l2.overall_miss_rate::total           0.024462                       # miss rate for overall accesses
system.l2.ReadExReq_avg_miss_latency::.cpu.data 127072.994968                       # average ReadExReq miss latency
system.l2.ReadExReq_avg_miss_latency::total 127072.994968                       # average ReadExReq miss latency
system.l2.ReadCleanReq_avg_miss_latency::.cpu.inst 117899.827288                       # average ReadCleanReq miss latency
system.l2.ReadCleanReq_avg_miss_latency::total 117899.827288                       # average ReadCleanReq miss latency
system.l2.ReadSharedReq_avg_miss_latency::.cpu.data 119700.904737                       # average ReadSharedReq miss latency
system.l2.ReadSharedReq_avg_miss_latency::total 119700.904737                       # average ReadSharedReq miss latency
system.l2.demand_avg_miss_latency::.cpu.inst 117899.827288                       # average overall miss latency
system.l2.demand_avg_miss_latency::.cpu.data 126302.403204                       # average overall miss latency
system.l2.demand_avg_miss_latency::total 125793.874778                       # average overall miss latency
system.l2.overall_avg_miss_latency::.cpu.inst 117899.827288                       # average overall miss latency
system.l2.overall_avg_miss_latency::.cpu.data 126302.403204                       # average overall miss latency
system.l2.overall_avg_miss_latency::total 125793.874778                       # average overall miss latency
system.l2.blocked_cycles::no_mshrs                  0                       # number of cycles access was blocked
system.l2.blocked_cycles::no_targets                0                       # number of cycles access was blocked
system.l2.blocked::no_mshrs                         0                       # number of cycles access was blocked
system.l2.blocked::no_targets                       0                       # number of cycles access was blocked
system.l2.avg_blocked_cycles::no_mshrs            nan                       # average number of cycles each access was blocked
system.l2.avg_blocked_cycles::no_targets          nan                       # average number of cycles each access was blocked
system.l2.ReadExReq_mshr_misses::.cpu.data        16097                       # number of ReadExReq MSHR misses
system.l2.ReadExReq_mshr_misses::total          16097                       # number of ReadExReq MSHR misses
system.l2.ReadCleanReq_mshr_misses::.cpu.inst         1158                       # number of ReadCleanReq MSHR misses
system.l2.ReadCleanReq_mshr_misses::total         1158                       # number of ReadCleanReq MSHR misses
system.l2.ReadSharedReq_mshr_misses::.cpu.data         1879                       # number of ReadSharedReq MSHR misses
system.l2.ReadSharedReq_mshr_misses::total         1879                       # number of ReadSharedReq MSHR misses
system.l2.demand_mshr_misses::.cpu.inst          1158                       # number of demand (read+write) MSHR misses
system.l2.demand_mshr_misses::.cpu.data         17976                       # number of demand (read+write) MSHR misses
system.l2.demand_mshr_misses::total             19134                       # number of demand (read+write) MSHR misses
system.l2.overall_mshr_misses::.cpu.inst         1158                       # number of overall MSHR misses
system.l2.overall_mshr_misses::.cpu.data        17976                       # number of overall MSHR misses
system.l2.overall_mshr_misses::total            19134                       # number of overall MSHR misses
system.l2.ReadExReq_mshr_miss_latency::.cpu.data   1723554000                       # number of ReadExReq MSHR miss cycles
system.l2.ReadExReq_mshr_miss_latency::total   1723554000                       # number of ReadExReq MSHR miss cycles
system.l2.ReadCleanReq_mshr_miss_latency::.cpu.inst    113388000                       # number of ReadCleanReq MSHR miss cycles
system.l2.ReadCleanReq_mshr_miss_latency::total    113388000                       # number of ReadCleanReq MSHR miss cycles
system.l2.ReadSharedReq_mshr_miss_latency::.cpu.data    187338000                       # number of ReadSharedReq MSHR miss cycles
system.l2.ReadSharedReq_mshr_miss_latency::total    187338000                       # number of ReadSharedReq MSHR miss cycles
system.l2.demand_mshr_miss_latency::.cpu.inst    113388000                       # number of demand (read+write) MSHR miss cycles
system.l2.demand_mshr_miss_latency::.cpu.data   1910892000                       # number of demand (read+write) MSHR miss cycles
system.l2.demand_mshr_miss_latency::total   2024280000                       # number of demand (read+write) MSHR miss cycles
system.l2.overall_mshr_miss_latency::.cpu.inst    113388000                       # number of overall MSHR miss cycles
system.l2.overall_mshr_miss_latency::.cpu.data   1910892000                       # number of overall MSHR miss cycles
system.l2.overall_mshr_miss_latency::total   2024280000                       # number of overall MSHR miss cycles
system.l2.ReadExReq_mshr_miss_rate::.cpu.data     0.021094                       # mshr miss rate for ReadExReq accesses
system.l2.ReadExReq_mshr_miss_rate::total     0.021094                       # mshr miss rate for ReadExReq accesses
system.l2.ReadCleanReq_mshr_miss_rate::.cpu.inst     0.983857                       # mshr miss rate for ReadCleanReq accesses
system.l2.ReadCleanReq_mshr_miss_rate::total     0.983857                       # mshr miss rate for ReadCleanReq accesses
system.l2.ReadSharedReq_mshr_miss_rate::.cpu.data     0.104954                       # mshr miss rate for ReadSharedReq accesses
system.l2.ReadSharedReq_mshr_miss_rate::total     0.104954                       # mshr miss rate for ReadSharedReq accesses
system.l2.demand_mshr_miss_rate::.cpu.inst     0.983857                       # mshr miss rate for demand accesses
system.l2.demand_mshr_miss_rate::.cpu.data     0.023016                       # mshr miss rate for demand accesses
system.l2.demand_mshr_miss_rate::total       0.024462                       # mshr miss rate for demand accesses
system.l2.overall_mshr_miss_rate::.cpu.inst     0.983857                       # mshr miss rate for overall accesses
system.l2.overall_mshr_miss_rate::.cpu.data     0.023016                       # mshr miss rate for overall accesses
system.l2.overall_mshr_miss_rate::total      0.024462                       # mshr miss rate for overall accesses
system.l2.ReadExReq_avg_mshr_miss_latency::.cpu.data 107072.994968                       # average ReadExReq mshr miss latency
system.l2.ReadExReq_avg_mshr_miss_latency::total 107072.994968                       # average ReadExReq mshr miss latency
system.l2.ReadCleanReq_avg_mshr_miss_latency::.cpu.inst 97917.098446                       # average ReadCleanReq mshr miss latency
system.l2.ReadCleanReq_avg_mshr_miss_latency::total 97917.098446                       # average ReadCleanReq mshr miss latency
system.l2.ReadSharedReq_avg_mshr_miss_latency::.cpu.data 99700.904737                       # average ReadSharedReq mshr miss latency
system.l2.ReadSharedReq_avg_mshr_miss_latency::total 99700.904737                       # average ReadSharedReq mshr miss latency
system.l2.demand_avg_mshr_miss_latency::.cpu.inst 97917.098446                       # average overall mshr miss latency
system.l2.demand_avg_mshr_miss_latency::.cpu.data 106302.403204                       # average overall mshr miss latency
system.l2.demand_avg_mshr_miss_latency::total 105794.920038                       # average overall mshr miss latency
system.l2.overall_avg_mshr_miss_latency::.cpu.inst 97917.098446                       # average overall mshr miss latency
system.l2.overall_avg_mshr_miss_latency::.cpu.data 106302.403204                       # average overall mshr miss latency
system.l2.overall_avg_mshr_miss_latency::total 105794.920038                       # average overall mshr miss latency
system.l2.replacements                              0                       # number of replacements
system.membus.snoop_filter.tot_requests         19133                       # Total number of requests made to the snoop filter.
system.membus.snoop_filter.hit_single_requests            0                       # Number of requests hitting in the snoop filter with a single holder of the requested data.
system.membus.snoop_filter.hit_multi_requests            0                       # Number of requests hitting in the snoop filter with multiple (>1) holders of the requested data.
system.membus.snoop_filter.tot_snoops               0                       # Total number of snoops made to the snoop filter.
system.membus.snoop_filter.hit_single_snoops            0                       # Number of snoops hitting in the snoop filter with a single holder of the requested data.
system.membus.snoop_filter.hit_multi_snoops            0                       # Number of snoops hitting in the snoop filter with multiple (>1) holders of the requested data.
system.membus.pwrStateResidencyTicks::UNDEFINED  37245379000                       # Cumulative time (in ticks) in various power states
system.membus.trans_dist::ReadResp               3036                       # Transaction distribution
system.membus.trans_dist::ReadExReq             16097                       # Transaction distribution
system.membus.trans_dist::ReadExResp            16097                       # Transaction distribution
system.membus.trans_dist::ReadSharedReq          3036                       # Transaction distribution
system.membus.pkt_count_system.l2.mem_side::system.mem_ctrls.port        38266                       # Packet count per connected master and slave (bytes)
system.membus.pkt_count_system.l2.mem_side::total        38266                       # Packet count per connected master and slave (bytes)
system.membus.pkt_count::total                  38266                       # Packet count per connected master and slave (bytes)
system.membus.pkt_size_system.l2.mem_side::system.mem_ctrls.port      1224512                       # Cumulative packet size per connected master and slave (bytes)
system.membus.pkt_size_system.l2.mem_side::total      1224512                       # Cumulative packet size per connected master and slave (bytes)
system.membus.pkt_size::total                 1224512                       # Cumulative packet size per connected master and slave (bytes)
system.membus.snoops                                0                       # Total snoops (count)
system.membus.snoopTraffic                          0                       # Total snoop traffic (bytes)
system.membus.snoop_fanout::samples             19133                       # Request fanout histogram
system.membus.snoop_fanout::mean                    0                       # Request fanout histogram
system.membus.snoop_fanout::stdev                   0                       # Request fanout histogram
system.membus.snoop_fanout::underflows              0      0.00%      0.00% # Request fanout histogram
system.membus.snoop_fanout::0                   19133    100.00%    100.00% # Request fanout histogram
system.membus.snoop_fanout::1                       0      0.00%    100.00% # Request fanout histogram
system.membus.snoop_fanout::overflows               0      0.00%    100.00% # Request fanout histogram
system.membus.snoop_fanout::min_value               0                       # Request fanout histogram
system.membus.snoop_fanout::max_value               0                       # Request fanout histogram
system.membus.snoop_fanout::total               19133                       # Request fanout histogram
system.membus.reqLayer2.occupancy            19133000                       # Layer occupancy (ticks)
system.membus.reqLayer2.utilization               0.1                       # Layer utilization (%)
system.membus.respLayer1.occupancy           95677000                       # Layer occupancy (ticks)
system.membus.respLayer1.utilization              0.3                       # Layer utilization (%)
system.tol2bus.snoop_filter.tot_requests      1562531                       # Total number of requests made to the snoop filter.
system.tol2bus.snoop_filter.hit_single_requests       780328                       # Number of requests hitting in the snoop filter with a single holder of the requested data.
system.tol2bus.snoop_filter.hit_multi_requests            6                       # Number of requests hitting in the snoop filter with multiple (>1) holders of the requested data.
system.tol2bus.snoop_filter.tot_snoops              0                       # Total number of snoops made to the snoop filter.
system.tol2bus.snoop_filter.hit_single_snoops            0                       # Number of snoops hitting in the snoop filter with a single holder of the requested data.
system.tol2bus.snoop_filter.hit_multi_snoops            0                       # Number of snoops hitting in the snoop filter with multiple (>1) holders of the requested data.
system.tol2bus.pwrStateResidencyTicks::UNDEFINED  37245379000                       # Cumulative time (in ticks) in various power states
system.tol2bus.trans_dist::ReadResp             19079                       # Transaction distribution
system.tol2bus.trans_dist::WritebackDirty       778107                       # Transaction distribution
system.tol2bus.trans_dist::WritebackClean          322                       # Transaction distribution
system.tol2bus.trans_dist::CleanEvict            1897                       # Transaction distribution
system.tol2bus.trans_dist::ReadExReq           763125                       # Transaction distribution
system.tol2bus.trans_dist::ReadExResp          763125                       # Transaction distribution
system.tol2bus.trans_dist::ReadCleanReq          1177                       # Transaction distribution
system.tol2bus.trans_dist::ReadSharedReq        17903                       # Transaction distribution
system.tol2bus.pkt_count_system.cpu.icache.mem_side::system.l2.cpu_side         2675                       # Packet count per connected master and slave (bytes)
system.tol2bus.pkt_count_system.cpu.dcache.mem_side::system.l2.cpu_side      2342060                       # Packet count per connected master and slave (bytes)
system.tol2bus.pkt_count::total               2344735                       # Packet count per connected master and slave (bytes)
system.tol2bus.pkt_size_system.cpu.icache.mem_side::system.l2.cpu_side        95872                       # Cumulative packet size per connected master and slave (bytes)
system.tol2bus.pkt_size_system.cpu.dcache.mem_side::system.l2.cpu_side     99784640                       # Cumulative packet size per connected master and slave (bytes)
system.tol2bus.pkt_size::total               99880512                       # Cumulative packet size per connected master and slave (bytes)
system.tol2bus.snoops                               0                       # Total snoops (count)
system.tol2bus.snoopTraffic                         0                       # Total snoop traffic (bytes)
system.tol2bus.snoop_fanout::samples           782205                       # Request fanout histogram
system.tol2bus.snoop_fanout::mean            0.000010                       # Request fanout histogram
system.tol2bus.snoop_fanout::stdev           0.003198                       # Request fanout histogram
system.tol2bus.snoop_fanout::underflows             0      0.00%      0.00% # Request fanout histogram
system.tol2bus.snoop_fanout::0                 782197    100.00%    100.00% # Request fanout histogram
system.tol2bus.snoop_fanout::1                      8      0.00%    100.00% # Request fanout histogram
system.tol2bus.snoop_fanout::2                      0      0.00%    100.00% # Request fanout histogram
system.tol2bus.snoop_fanout::3                      0      0.00%    100.00% # Request fanout histogram
system.tol2bus.snoop_fanout::4                      0      0.00%    100.00% # Request fanout histogram
system.tol2bus.snoop_fanout::overflows              0      0.00%    100.00% # Request fanout histogram
system.tol2bus.snoop_fanout::min_value              0                       # Request fanout histogram
system.tol2bus.snoop_fanout::max_value              1                       # Request fanout histogram
system.tol2bus.snoop_fanout::total             782205                       # Request fanout histogram
system.tol2bus.reqLayer0.occupancy         3119389000                       # Layer occupancy (ticks)
system.tol2bus.reqLayer0.utilization              8.4                       # Layer utilization (%)
system.tol2bus.respLayer0.occupancy           3528000                       # Layer occupancy (ticks)
system.tol2bus.respLayer0.utilization             0.0                       # Layer utilization (%)
system.tol2bus.respLayer1.occupancy        2343084000                       # Layer occupancy (ticks)
system.tol2bus.respLayer1.utilization             6.3                       # Layer utilization (%)

---------- End Simulation Statistics   ----------
