
---------- Begin Simulation Statistics ----------
sim_seconds                                  0.004109                       # Number of seconds simulated
sim_ticks                                  4108899000                       # Number of ticks simulated
final_tick                                 4108899000                       # Number of ticks from beginning of simulation (restored from checkpoints and never reset)
sim_freq                                 1000000000000                       # Frequency of simulated ticks
host_inst_rate                                  39060                       # Simulator instruction rate (inst/s)
host_op_rate                                    60531                       # Simulator op (including micro ops) rate (op/s)
host_tick_rate                               28773068                       # Simulator tick rate (ticks/s)
host_mem_usage                                 671476                       # Number of bytes of host memory used
host_seconds                                   142.80                       # Real time elapsed on the host
sim_insts                                     5577901                       # Number of instructions simulated
sim_ops                                       8644099                       # Number of ops (including micro ops) simulated
system.voltage_domain.voltage                       1                       # Voltage in Volts
system.clk_domain.clock                          1000                       # Clock period in ticks
system.mem_ctrls.pwrStateResidencyTicks::UNDEFINED   4108899000                       # Cumulative time (in ticks) in various power states
system.mem_ctrls.bytes_read::.cpu.inst          51392                       # Number of bytes read from this memory
system.mem_ctrls.bytes_read::.cpu.data        2197184                       # Number of bytes read from this memory
system.mem_ctrls.bytes_read::total            2248576                       # Number of bytes read from this memory
system.mem_ctrls.bytes_inst_read::.cpu.inst        51392                       # Number of instructions bytes read from this memory
system.mem_ctrls.bytes_inst_read::total         51392                       # Number of instructions bytes read from this memory
system.mem_ctrls.bytes_written::.writebacks        25792                       # Number of bytes written to this memory
system.mem_ctrls.bytes_written::total           25792                       # Number of bytes written to this memory
system.mem_ctrls.num_reads::.cpu.inst             803                       # Number of read requests responded to by this memory
system.mem_ctrls.num_reads::.cpu.data           34331                       # Number of read requests responded to by this memory
system.mem_ctrls.num_reads::total               35134                       # Number of read requests responded to by this memory
system.mem_ctrls.num_writes::.writebacks          403                       # Number of write requests responded to by this memory
system.mem_ctrls.num_writes::total                403                       # Number of write requests responded to by this memory
system.mem_ctrls.bw_read::.cpu.inst          12507487                       # Total read bandwidth from this memory (bytes/s)
system.mem_ctrls.bw_read::.cpu.data         534737895                       # Total read bandwidth from this memory (bytes/s)
system.mem_ctrls.bw_read::total             547245381                       # Total read bandwidth from this memory (bytes/s)
system.mem_ctrls.bw_inst_read::.cpu.inst     12507487                       # Instruction read bandwidth from this memory (bytes/s)
system.mem_ctrls.bw_inst_read::total         12507487                       # Instruction read bandwidth from this memory (bytes/s)
system.mem_ctrls.bw_write::.writebacks        6277107                       # Write bandwidth from this memory (bytes/s)
system.mem_ctrls.bw_write::total              6277107                       # Write bandwidth from this memory (bytes/s)
system.mem_ctrls.bw_total::.writebacks        6277107                       # Total bandwidth to/from this memory (bytes/s)
system.mem_ctrls.bw_total::.cpu.inst         12507487                       # Total bandwidth to/from this memory (bytes/s)
system.mem_ctrls.bw_total::.cpu.data        534737895                       # Total bandwidth to/from this memory (bytes/s)
system.mem_ctrls.bw_total::total            553522489                       # Total bandwidth to/from this memory (bytes/s)
system.mem_ctrls.avgPriority_.writebacks::samples       403.00                       # Average QoS priority value for accepted requests
system.mem_ctrls.avgPriority_.cpu.inst::samples       803.00                       # Average QoS priority value for accepted requests
system.mem_ctrls.avgPriority_.cpu.data::samples     34328.00                       # Average QoS priority value for accepted requests
system.mem_ctrls.priorityMinLatency      0.000000018750                       # per QoS priority minimum request to response latency (s)
system.mem_ctrls.priorityMaxLatency      0.000680940750                       # per QoS priority maximum request to response latency (s)
system.mem_ctrls.numReadWriteTurnArounds           23                       # Number of turnarounds from READ to WRITE
system.mem_ctrls.numWriteReadTurnArounds           23                       # Number of turnarounds from WRITE to READ
system.mem_ctrls.numStayReadState               65495                       # Number of times bus staying in READ state
system.mem_ctrls.numStayWriteState                353                       # Number of times bus staying in WRITE state
system.mem_ctrls.readReqs                       35134                       # Number of read requests accepted
system.mem_ctrls.writeReqs                        403                       # Number of write requests accepted
system.mem_ctrls.readBursts                     35134                       # Number of DRAM read bursts, including those serviced by the write queue
system.mem_ctrls.writeBursts                      403                       # Number of DRAM write bursts, including those merged in the write queue
system.mem_ctrls.bytesReadDRAM                2248384                       # Total number of bytes read from DRAM
system.mem_ctrls.bytesReadWrQ                     192                       # Total number of bytes read from write queue
system.mem_ctrls.bytesWritten                   24064                       # Total number of bytes written to DRAM
system.mem_ctrls.bytesReadSys                 2248576                       # Total read bytes from the system interface side
system.mem_ctrls.bytesWrittenSys                25792                       # Total written bytes from the system interface side
system.mem_ctrls.servicedByWrQ                      3                       # Number of DRAM read bursts serviced by the write queue
system.mem_ctrls.mergedWrBursts                     0                       # Number of DRAM write bursts merged with an existing one
system.mem_ctrls.neitherReadNorWriteReqs            0                       # Number of requests that are neither read nor write
system.mem_ctrls.perBankRdBursts::0              2125                       # Per bank write bursts
system.mem_ctrls.perBankRdBursts::1              2141                       # Per bank write bursts
system.mem_ctrls.perBankRdBursts::2              2261                       # Per bank write bursts
system.mem_ctrls.perBankRdBursts::3              2223                       # Per bank write bursts
system.mem_ctrls.perBankRdBursts::4              2210                       # Per bank write bursts
system.mem_ctrls.perBankRdBursts::5              2223                       # Per bank write bursts
system.mem_ctrls.perBankRdBursts::6              2267                       # Per bank write bursts
system.mem_ctrls.perBankRdBursts::7              2170                       # Per bank write bursts
system.mem_ctrls.perBankRdBursts::8              2227                       # Per bank write bursts
system.mem_ctrls.perBankRdBursts::9              2249                       # Per bank write bursts
system.mem_ctrls.perBankRdBursts::10             2252                       # Per bank write bursts
system.mem_ctrls.perBankRdBursts::11             2202                       # Per bank write bursts
system.mem_ctrls.perBankRdBursts::12             2189                       # Per bank write bursts
system.mem_ctrls.perBankRdBursts::13             2155                       # Per bank write bursts
system.mem_ctrls.perBankRdBursts::14             2121                       # Per bank write bursts
system.mem_ctrls.perBankRdBursts::15             2116                       # Per bank write bursts
system.mem_ctrls.perBankWrBursts::0                 2                       # Per bank write bursts
system.mem_ctrls.perBankWrBursts::1                27                       # Per bank write bursts
system.mem_ctrls.perBankWrBursts::2               110                       # Per bank write bursts
system.mem_ctrls.perBankWrBursts::3                81                       # Per bank write bursts
system.mem_ctrls.perBankWrBursts::4                43                       # Per bank write bursts
system.mem_ctrls.perBankWrBursts::5                20                       # Per bank write bursts
system.mem_ctrls.perBankWrBursts::6                63                       # Per bank write bursts
system.mem_ctrls.perBankWrBursts::7                 1                       # Per bank write bursts
system.mem_ctrls.perBankWrBursts::8                 0                       # Per bank write bursts
system.mem_ctrls.perBankWrBursts::9                 0                       # Per bank write bursts
system.mem_ctrls.perBankWrBursts::10                0                       # Per bank write bursts
system.mem_ctrls.perBankWrBursts::11                0                       # Per bank write bursts
system.mem_ctrls.perBankWrBursts::12               29                       # Per bank write bursts
system.mem_ctrls.perBankWrBursts::13                0                       # Per bank write bursts
system.mem_ctrls.perBankWrBursts::14                0                       # Per bank write bursts
system.mem_ctrls.perBankWrBursts::15                0                       # Per bank write bursts
system.mem_ctrls.numRdRetry                         0                       # Number of times read queue was full causing retry
system.mem_ctrls.numWrRetry                         0                       # Number of times write queue was full causing retry
system.mem_ctrls.totGap                    4108785000                       # Total gap between requests
system.mem_ctrls.readPktSize::0                     0                       # Read request sizes (log2)
system.mem_ctrls.readPktSize::1                     0                       # Read request sizes (log2)
system.mem_ctrls.readPktSize::2                     0                       # Read request sizes (log2)
system.mem_ctrls.readPktSize::3                     0                       # Read request sizes (log2)
system.mem_ctrls.readPktSize::4                     0                       # Read request sizes (log2)
system.mem_ctrls.readPktSize::5                     0                       # Read request sizes (log2)
system.mem_ctrls.readPktSize::6                 35134                       # Read request sizes (log2)
system.mem_ctrls.writePktSize::0                    0                       # Write request sizes (log2)
system.mem_ctrls.writePktSize::1                    0                       # Write request sizes (log2)
system.mem_ctrls.writePktSize::2                    0                       # Write request sizes (log2)
system.mem_ctrls.writePktSize::3                    0                       # Write request sizes (log2)
system.mem_ctrls.writePktSize::4                    0                       # Write request sizes (log2)
system.mem_ctrls.writePktSize::5                    0                       # Write request sizes (log2)
system.mem_ctrls.writePktSize::6                  403                       # Write request sizes (log2)
system.mem_ctrls.rdQLenPdf::0                   10875                       # What read queue length does an incoming req see
system.mem_ctrls.rdQLenPdf::1                   14568                       # What read queue length does an incoming req see
system.mem_ctrls.rdQLenPdf::2                    8015                       # What read queue length does an incoming req see
system.mem_ctrls.rdQLenPdf::3                    1666                       # What read queue length does an incoming req see
system.mem_ctrls.rdQLenPdf::4                       7                       # What read queue length does an incoming req see
system.mem_ctrls.rdQLenPdf::5                       0                       # What read queue length does an incoming req see
system.mem_ctrls.rdQLenPdf::6                       0                       # What read queue length does an incoming req see
system.mem_ctrls.rdQLenPdf::7                       0                       # What read queue length does an incoming req see
system.mem_ctrls.rdQLenPdf::8                       0                       # What read queue length does an incoming req see
system.mem_ctrls.rdQLenPdf::9                       0                       # What read queue length does an incoming req see
system.mem_ctrls.rdQLenPdf::10                      0                       # What read queue length does an incoming req see
system.mem_ctrls.rdQLenPdf::11                      0                       # What read queue length does an incoming req see
system.mem_ctrls.rdQLenPdf::12                      0                       # What read queue length does an incoming req see
system.mem_ctrls.rdQLenPdf::13                      0                       # What read queue length does an incoming req see
system.mem_ctrls.rdQLenPdf::14                      0                       # What read queue length does an incoming req see
system.mem_ctrls.rdQLenPdf::15                      0                       # What read queue length does an incoming req see
system.mem_ctrls.rdQLenPdf::16                      0                       # What read queue length does an incoming req see
system.mem_ctrls.rdQLenPdf::17                      0                       # What read queue length does an incoming req see
system.mem_ctrls.rdQLenPdf::18                      0                       # What read queue length does an incoming req see
system.mem_ctrls.rdQLenPdf::19                      0                       # What read queue length does an incoming req see
system.mem_ctrls.rdQLenPdf::20                      0                       # What read queue length does an incoming req see
system.mem_ctrls.rdQLenPdf::21                      0                       # What read queue length does an incoming req see
system.mem_ctrls.rdQLenPdf::22                      0                       # What read queue length does an incoming req see
system.mem_ctrls.rdQLenPdf::23                      0                       # What read queue length does an incoming req see
system.mem_ctrls.rdQLenPdf::24                      0                       # What read queue length does an incoming req see
system.mem_ctrls.rdQLenPdf::25                      0                       # What read queue length does an incoming req see
system.mem_ctrls.rdQLenPdf::26                      0                       # What read queue length does an incoming req see
system.mem_ctrls.rdQLenPdf::27                      0                       # What read queue length does an incoming req see
system.mem_ctrls.rdQLenPdf::28                      0                       # What read queue length does an incoming req see
system.mem_ctrls.rdQLenPdf::29                      0                       # What read queue length does an incoming req see
system.mem_ctrls.rdQLenPdf::30                      0                       # What read queue length does an incoming req see
system.mem_ctrls.rdQLenPdf::31                      0                       # What read queue length does an incoming req see
system.mem_ctrls.wrQLenPdf::0                       1                       # What write queue length does an incoming req see
system.mem_ctrls.wrQLenPdf::1                       1                       # What write queue length does an incoming req see
system.mem_ctrls.wrQLenPdf::2                       1                       # What write queue length does an incoming req see
system.mem_ctrls.wrQLenPdf::3                       1                       # What write queue length does an incoming req see
system.mem_ctrls.wrQLenPdf::4                       1                       # What write queue length does an incoming req see
system.mem_ctrls.wrQLenPdf::5                       1                       # What write queue length does an incoming req see
system.mem_ctrls.wrQLenPdf::6                       1                       # What write queue length does an incoming req see
system.mem_ctrls.wrQLenPdf::7                       1                       # What write queue length does an incoming req see
system.mem_ctrls.wrQLenPdf::8                       1                       # What write queue length does an incoming req see
system.mem_ctrls.wrQLenPdf::9                       1                       # What write queue length does an incoming req see
system.mem_ctrls.wrQLenPdf::10                      1                       # What write queue length does an incoming req see
system.mem_ctrls.wrQLenPdf::11                      1                       # What write queue length does an incoming req see
system.mem_ctrls.wrQLenPdf::12                      1                       # What write queue length does an incoming req see
system.mem_ctrls.wrQLenPdf::13                      1                       # What write queue length does an incoming req see
system.mem_ctrls.wrQLenPdf::14                      1                       # What write queue length does an incoming req see
system.mem_ctrls.wrQLenPdf::15                      5                       # What write queue length does an incoming req see
system.mem_ctrls.wrQLenPdf::16                      5                       # What write queue length does an incoming req see
system.mem_ctrls.wrQLenPdf::17                     24                       # What write queue length does an incoming req see
system.mem_ctrls.wrQLenPdf::18                     24                       # What write queue length does an incoming req see
system.mem_ctrls.wrQLenPdf::19                     24                       # What write queue length does an incoming req see
system.mem_ctrls.wrQLenPdf::20                     24                       # What write queue length does an incoming req see
system.mem_ctrls.wrQLenPdf::21                     24                       # What write queue length does an incoming req see
system.mem_ctrls.wrQLenPdf::22                     24                       # What write queue length does an incoming req see
system.mem_ctrls.wrQLenPdf::23                     24                       # What write queue length does an incoming req see
system.mem_ctrls.wrQLenPdf::24                     24                       # What write queue length does an incoming req see
system.mem_ctrls.wrQLenPdf::25                     24                       # What write queue length does an incoming req see
system.mem_ctrls.wrQLenPdf::26                     24                       # What write queue length does an incoming req see
system.mem_ctrls.wrQLenPdf::27                     23                       # What write queue length does an incoming req see
system.mem_ctrls.wrQLenPdf::28                     23                       # What write queue length does an incoming req see
system.mem_ctrls.wrQLenPdf::29                     23                       # What write queue length does an incoming req see
system.mem_ctrls.wrQLenPdf::30                     23                       # What write queue length does an incoming req see
system.mem_ctrls.wrQLenPdf::31                     23                       # What write queue length does an incoming req see
system.mem_ctrls.wrQLenPdf::32                     23                       # What write queue length does an incoming req see
system.mem_ctrls.wrQLenPdf::33                      0                       # What write queue length does an incoming req see
system.mem_ctrls.wrQLenPdf::34                      0                       # What write queue length does an incoming req see
system.mem_ctrls.wrQLenPdf::35                      0                       # What write queue length does an incoming req see
system.mem_ctrls.wrQLenPdf::36                      0                       # What write queue length does an incoming req see
system.mem_ctrls.wrQLenPdf::37                      0                       # What write queue length does an incoming req see
system.mem_ctrls.wrQLenPdf::38                      0                       # What write queue length does an incoming req see
system.mem_ctrls.wrQLenPdf::39                      0                       # What write queue length does an incoming req see
system.mem_ctrls.wrQLenPdf::40                      0                       # What write queue length does an incoming req see
system.mem_ctrls.wrQLenPdf::41                      0                       # What write queue length does an incoming req see
system.mem_ctrls.wrQLenPdf::42                      0                       # What write queue length does an incoming req see
system.mem_ctrls.wrQLenPdf::43                      0                       # What write queue length does an incoming req see
system.mem_ctrls.wrQLenPdf::44                      0                       # What write queue length does an incoming req see
system.mem_ctrls.wrQLenPdf::45                      0                       # What write queue length does an incoming req see
system.mem_ctrls.wrQLenPdf::46                      0                       # What write queue length does an incoming req see
system.mem_ctrls.wrQLenPdf::47                      0                       # What write queue length does an incoming req see
system.mem_ctrls.wrQLenPdf::48                      0                       # What write queue length does an incoming req see
system.mem_ctrls.wrQLenPdf::49                      0                       # What write queue length does an incoming req see
system.mem_ctrls.wrQLenPdf::50                      0                       # What write queue length does an incoming req see
system.mem_ctrls.wrQLenPdf::51                      0                       # What write queue length does an incoming req see
system.mem_ctrls.wrQLenPdf::52                      0                       # What write queue length does an incoming req see
system.mem_ctrls.wrQLenPdf::53                      0                       # What write queue length does an incoming req see
system.mem_ctrls.wrQLenPdf::54                      0                       # What write queue length does an incoming req see
system.mem_ctrls.wrQLenPdf::55                      0                       # What write queue length does an incoming req see
system.mem_ctrls.wrQLenPdf::56                      0                       # What write queue length does an incoming req see
system.mem_ctrls.wrQLenPdf::57                      0                       # What write queue length does an incoming req see
system.mem_ctrls.wrQLenPdf::58                      0                       # What write queue length does an incoming req see
system.mem_ctrls.wrQLenPdf::59                      0                       # What write queue length does an incoming req see
system.mem_ctrls.wrQLenPdf::60                      0                       # What write queue length does an incoming req see
system.mem_ctrls.wrQLenPdf::61                      0                       # What write queue length does an incoming req see
system.mem_ctrls.wrQLenPdf::62                      0                       # What write queue length does an incoming req see
system.mem_ctrls.wrQLenPdf::63                      0                       # What write queue length does an incoming req see
system.mem_ctrls.bytesPerActivate::samples        31566                       # Bytes accessed per row activation
system.mem_ctrls.bytesPerActivate::mean     71.899132                       # Bytes accessed per row activation
system.mem_ctrls.bytesPerActivate::gmean    67.656278                       # Bytes accessed per row activation
system.mem_ctrls.bytesPerActivate::stdev    55.784301                       # Bytes accessed per row activation
system.mem_ctrls.bytesPerActivate::0-127        29627     93.86%     93.86% # Bytes accessed per row activation
system.mem_ctrls.bytesPerActivate::128-255         1684      5.33%     99.19% # Bytes accessed per row activation
system.mem_ctrls.bytesPerActivate::256-383           82      0.26%     99.45% # Bytes accessed per row activation
system.mem_ctrls.bytesPerActivate::384-511           46      0.15%     99.60% # Bytes accessed per row activation
system.mem_ctrls.bytesPerActivate::512-639           26      0.08%     99.68% # Bytes accessed per row activation
system.mem_ctrls.bytesPerActivate::640-767           24      0.08%     99.76% # Bytes accessed per row activation
system.mem_ctrls.bytesPerActivate::768-895            6      0.02%     99.78% # Bytes accessed per row activation
system.mem_ctrls.bytesPerActivate::896-1023            9      0.03%     99.80% # Bytes accessed per row activation
system.mem_ctrls.bytesPerActivate::1024-1151           62      0.20%    100.00% # Bytes accessed per row activation
system.mem_ctrls.bytesPerActivate::total        31566                       # Bytes accessed per row activation
system.mem_ctrls.rdPerTurnAround::samples           23                       # Reads before turning the bus around for writes
system.mem_ctrls.rdPerTurnAround::mean    1517.782609                       # Reads before turning the bus around for writes
system.mem_ctrls.rdPerTurnAround::gmean    388.170142                       # Reads before turning the bus around for writes
system.mem_ctrls.rdPerTurnAround::stdev   5380.032443                       # Reads before turning the bus around for writes
system.mem_ctrls.rdPerTurnAround::0-1023           20     86.96%     86.96% # Reads before turning the bus around for writes
system.mem_ctrls.rdPerTurnAround::1024-2047            2      8.70%     95.65% # Reads before turning the bus around for writes
system.mem_ctrls.rdPerTurnAround::25600-26623            1      4.35%    100.00% # Reads before turning the bus around for writes
system.mem_ctrls.rdPerTurnAround::total            23                       # Reads before turning the bus around for writes
system.mem_ctrls.wrPerTurnAround::samples           23                       # Writes before turning the bus around for reads
system.mem_ctrls.wrPerTurnAround::mean      16.347826                       # Writes before turning the bus around for reads
system.mem_ctrls.wrPerTurnAround::gmean     16.331124                       # Writes before turning the bus around for reads
system.mem_ctrls.wrPerTurnAround::stdev      0.775107                       # Writes before turning the bus around for reads
system.mem_ctrls.wrPerTurnAround::16               19     82.61%     82.61% # Writes before turning the bus around for reads
system.mem_ctrls.wrPerTurnAround::18                4     17.39%    100.00% # Writes before turning the bus around for reads
system.mem_ctrls.wrPerTurnAround::total            23                       # Writes before turning the bus around for reads
system.mem_ctrls.masterReadBytes::.cpu.inst        51392                       # Per-master bytes read from memory
system.mem_ctrls.masterReadBytes::.cpu.data      2196992                       # Per-master bytes read from memory
system.mem_ctrls.masterWriteBytes::.writebacks        24064                       # Per-master bytes write to memory
system.mem_ctrls.masterReadRate::.cpu.inst 12507486.798775048926                       # Per-master bytes read from memory rate (Bytes/sec)
system.mem_ctrls.masterReadRate::.cpu.data 534691166.660460591316                       # Per-master bytes read from memory rate (Bytes/sec)
system.mem_ctrls.masterWriteRate::.writebacks 5856556.707770135254                       # Per-master bytes write to memory rate (Bytes/sec)
system.mem_ctrls.masterReadAccesses::.cpu.inst          803                       # Per-master read serviced memory accesses
system.mem_ctrls.masterReadAccesses::.cpu.data        34331                       # Per-master read serviced memory accesses
system.mem_ctrls.masterWriteAccesses::.writebacks          403                       # Per-master write serviced memory accesses
system.mem_ctrls.masterReadTotalLat::.cpu.inst     27159750                       # Per-master read total memory access latency
system.mem_ctrls.masterReadTotalLat::.cpu.data   1864590000                       # Per-master read total memory access latency
system.mem_ctrls.masterWriteTotalLat::.writebacks  14713893000                       # Per-master write total memory access latency
system.mem_ctrls.masterReadAvgLat::.cpu.inst     33822.85                       # Per-master read average memory access latency
system.mem_ctrls.masterReadAvgLat::.cpu.data     54312.14                       # Per-master read average memory access latency
system.mem_ctrls.masterWriteAvgLat::.writebacks  36510900.74                       # Per-master write average memory access latency
system.mem_ctrls.totQLat                   1233043500                       # Total ticks spent queuing
system.mem_ctrls.totMemAccLat              1891749750                       # Total ticks spent from burst creation until serviced by the DRAM
system.mem_ctrls.totBusLat                  175655000                       # Total ticks spent in databus transfers
system.mem_ctrls.avgQLat                     35098.45                       # Average queueing delay per DRAM burst
system.mem_ctrls.avgBusLat                    5000.00                       # Average bus latency per DRAM burst
system.mem_ctrls.avgMemAccLat                53848.45                       # Average memory access latency per DRAM burst
system.mem_ctrls.avgRdBW                       547.20                       # Average DRAM read bandwidth in MiByte/s
system.mem_ctrls.avgWrBW                         5.86                       # Average achieved write bandwidth in MiByte/s
system.mem_ctrls.avgRdBWSys                    547.25                       # Average system read bandwidth in MiByte/s
system.mem_ctrls.avgWrBWSys                      6.28                       # Average system write bandwidth in MiByte/s
system.mem_ctrls.peakBW                      12800.00                       # Theoretical peak bandwidth in MiByte/s
system.mem_ctrls.busUtil                         4.32                       # Data bus utilization in percentage
system.mem_ctrls.busUtilRead                     4.27                       # Data bus utilization in percentage for reads
system.mem_ctrls.busUtilWrite                    0.05                       # Data bus utilization in percentage for writes
system.mem_ctrls.avgRdQLen                       1.45                       # Average read queue length when enqueuing
system.mem_ctrls.avgWrQLen                      21.17                       # Average write queue length when enqueuing
system.mem_ctrls.readRowHits                     3625                       # Number of row buffer hits during reads
system.mem_ctrls.writeRowHits                     305                       # Number of row buffer hits during writes
system.mem_ctrls.readRowHitRate                 10.32                       # Row buffer hit rate for reads
system.mem_ctrls.writeRowHitRate                75.68                       # Row buffer hit rate for writes
system.mem_ctrls.avgGap                     115619.92                       # Average gap between requests
system.mem_ctrls.pageHitRate                    11.06                       # Row buffer hit rate, read and write combined
system.mem_ctrls_0.actEnergy                113197560                       # Energy for activate commands per rank (pJ)
system.mem_ctrls_0.preEnergy                 60135570                       # Energy for precharge commands per rank (pJ)
system.mem_ctrls_0.readEnergy               125806800                       # Energy for read commands per rank (pJ)
system.mem_ctrls_0.writeEnergy                1811340                       # Energy for write commands per rank (pJ)
system.mem_ctrls_0.refreshEnergy         118010880.000000                       # Energy for refresh commands per rank (pJ)
system.mem_ctrls_0.actBackEnergy            324359070                       # Energy for active background per rank (pJ)
system.mem_ctrls_0.preBackEnergy              2633280                       # Energy for precharge background per rank (pJ)
system.mem_ctrls_0.actPowerDownEnergy       350645190                       # Energy for active power-down per rank (pJ)
system.mem_ctrls_0.prePowerDownEnergy         5634240                       # Energy for precharge power-down per rank (pJ)
system.mem_ctrls_0.selfRefreshEnergy        626255640                       # Energy for self refresh per rank (pJ)
system.mem_ctrls_0.totalEnergy             1728489570                       # Total energy per rank (pJ)
system.mem_ctrls_0.averagePower            420.669763                       # Core power per rank (mW)
system.mem_ctrls_0.totalIdleTime           3390755750                       # Total Idle time Per DRAM Rank
system.mem_ctrls_0.memoryStateTime::IDLE      1122500                       # Time in different power states
system.mem_ctrls_0.memoryStateTime::REF      49920000                       # Time in different power states
system.mem_ctrls_0.memoryStateTime::SREF   2607097000                       # Time in different power states
system.mem_ctrls_0.memoryStateTime::PRE_PDN     14665750                       # Time in different power states
system.mem_ctrls_0.memoryStateTime::ACT     667036500                       # Time in different power states
system.mem_ctrls_0.memoryStateTime::ACT_PDN    769057250                       # Time in different power states
system.mem_ctrls_1.actEnergy                112262220                       # Energy for activate commands per rank (pJ)
system.mem_ctrls_1.preEnergy                 59657400                       # Energy for precharge commands per rank (pJ)
system.mem_ctrls_1.readEnergy               125028540                       # Energy for read commands per rank (pJ)
system.mem_ctrls_1.writeEnergy                 151380                       # Energy for write commands per rank (pJ)
system.mem_ctrls_1.refreshEnergy         119854800.000000                       # Energy for refresh commands per rank (pJ)
system.mem_ctrls_1.actBackEnergy            321302730                       # Energy for active background per rank (pJ)
system.mem_ctrls_1.preBackEnergy              4105440                       # Energy for precharge background per rank (pJ)
system.mem_ctrls_1.actPowerDownEnergy       352433850                       # Energy for active power-down per rank (pJ)
system.mem_ctrls_1.prePowerDownEnergy        14024640                       # Energy for precharge power-down per rank (pJ)
system.mem_ctrls_1.selfRefreshEnergy        621310980                       # Energy for self refresh per rank (pJ)
system.mem_ctrls_1.totalEnergy             1730131980                       # Total energy per rank (pJ)
system.mem_ctrls_1.averagePower            421.069484                       # Core power per rank (mW)
system.mem_ctrls_1.totalIdleTime           3393386000                       # Total Idle time Per DRAM Rank
system.mem_ctrls_1.memoryStateTime::IDLE      4759250                       # Time in different power states
system.mem_ctrls_1.memoryStateTime::REF      50700000                       # Time in different power states
system.mem_ctrls_1.memoryStateTime::SREF   2584192250                       # Time in different power states
system.mem_ctrls_1.memoryStateTime::PRE_PDN     36516000                       # Time in different power states
system.mem_ctrls_1.memoryStateTime::ACT     659761250                       # Time in different power states
system.mem_ctrls_1.memoryStateTime::ACT_PDN    772970250                       # Time in different power states
system.pwrStateResidencyTicks::UNDEFINED   4108899000                       # Cumulative time (in ticks) in various power states
system.cpu.branchPred.lookups                  530047                       # Number of BP lookups
system.cpu.branchPred.condPredicted            530047                       # Number of conditional branches predicted
system.cpu.branchPred.condIncorrect              2664                       # Number of conditional branches incorrect
system.cpu.branchPred.BTBLookups               527135                       # Number of BTB lookups
system.cpu.branchPred.BTBHits                       0                       # Number of BTB hits
system.cpu.branchPred.BTBCorrect                    0                       # Number of correct BTB predictions (this stat may not work properly.
system.cpu.branchPred.BTBHitPct              0.000000                       # BTB Hit Percentage
system.cpu.branchPred.usedRAS                    1373                       # Number of times the RAS was used to get a target.
system.cpu.branchPred.RASInCorrect                342                       # Number of incorrect RAS predictions.
system.cpu.branchPred.indirectLookups          527135                       # Number of indirect predictor lookups.
system.cpu.branchPred.indirectHits             508066                       # Number of indirect target hits.
system.cpu.branchPred.indirectMisses            19069                       # Number of indirect misses.
system.cpu.branchPredindirectMispredicted         1755                       # Number of mispredicted indirect branches.
system.cpu_voltage_domain.voltage                   1                       # Voltage in Volts
system.cpu_clk_domain.clock                      1000                       # Clock period in ticks
system.cpu.dtb.walker.pwrStateResidencyTicks::UNDEFINED   4108899000                       # Cumulative time (in ticks) in various power states
system.cpu.dtb.rdAccesses                      919951                       # TLB accesses on read requests
system.cpu.dtb.wrAccesses                       13376                       # TLB accesses on write requests
system.cpu.dtb.rdMisses                        439164                       # TLB misses on read requests
system.cpu.dtb.wrMisses                            80                       # TLB misses on write requests
system.cpu.apic_clk_domain.clock                16000                       # Clock period in ticks
system.cpu.interrupts.pwrStateResidencyTicks::UNDEFINED   4108899000                       # Cumulative time (in ticks) in various power states
system.cpu.itb.walker.pwrStateResidencyTicks::UNDEFINED   4108899000                       # Cumulative time (in ticks) in various power states
system.cpu.itb.rdAccesses                           0                       # TLB accesses on read requests
system.cpu.itb.wrAccesses                       17184                       # TLB accesses on write requests
system.cpu.itb.rdMisses                             0                       # TLB misses on read requests
system.cpu.itb.wrMisses                           124                       # TLB misses on write requests
system.cpu.workload.numSyscalls                    27                       # Number of system calls
system.cpu.pwrStateResidencyTicks::ON      4108899000                       # Cumulative time (in ticks) in various power states
system.cpu.numCycles                          4108900                       # number of cpu cycles simulated
system.cpu.numWorkItemsStarted                      0                       # number of work items this cpu started
system.cpu.numWorkItemsCompleted                    0                       # number of work items this cpu completed
system.cpu.fetch.icacheStallCycles              37855                       # Number of cycles fetch is stalled on an Icache miss
system.cpu.fetch.Insts                        5655653                       # Number of instructions fetch has processed
system.cpu.fetch.Branches                      530047                       # Number of branches that fetch encountered
system.cpu.fetch.predictedBranches             509439                       # Number of branches that fetch has predicted taken
system.cpu.fetch.Cycles                       4032975                       # Number of cycles fetch has run and was not squashing or blocked
system.cpu.fetch.SquashCycles                    5434                       # Number of cycles fetch has spent squashing
system.cpu.fetch.TlbCycles                        111                       # Number of cycles fetch has spent waiting for tlb
system.cpu.fetch.MiscStallCycles                   22                       # Number of cycles fetch has spent waiting on interrupts, or bad addresses, or out of MSHRs
system.cpu.fetch.PendingTrapStallCycles           348                       # Number of stall cycles due to pending traps
system.cpu.fetch.PendingQuiesceStallCycles           14                       # Number of stall cycles due to pending quiesce instructions
system.cpu.fetch.IcacheWaitRetryStallCycles           15                       # Number of stall cycles due to full MSHR
system.cpu.fetch.CacheLines                     17134                       # Number of cache lines fetched
system.cpu.fetch.IcacheSquashes                  1048                       # Number of outstanding Icache misses that were squashed
system.cpu.fetch.rateDist::samples            4074057                       # Number of instructions fetched each cycle (Total)
system.cpu.fetch.rateDist::mean              2.157349                       # Number of instructions fetched each cycle (Total)
system.cpu.fetch.rateDist::stdev             3.185676                       # Number of instructions fetched each cycle (Total)
system.cpu.fetch.rateDist::underflows               0      0.00%      0.00% # Number of instructions fetched each cycle (Total)
system.cpu.fetch.rateDist::0                  2529570     62.09%     62.09% # Number of instructions fetched each cycle (Total)
system.cpu.fetch.rateDist::1                   164371      4.03%     66.12% # Number of instructions fetched each cycle (Total)
system.cpu.fetch.rateDist::2                   115805      2.84%     68.97% # Number of instructions fetched each cycle (Total)
system.cpu.fetch.rateDist::3                   114919      2.82%     71.79% # Number of instructions fetched each cycle (Total)
system.cpu.fetch.rateDist::4                   114517      2.81%     74.60% # Number of instructions fetched each cycle (Total)
system.cpu.fetch.rateDist::5                   113161      2.78%     77.38% # Number of instructions fetched each cycle (Total)
system.cpu.fetch.rateDist::6                   115764      2.84%     80.22% # Number of instructions fetched each cycle (Total)
system.cpu.fetch.rateDist::7                   117633      2.89%     83.10% # Number of instructions fetched each cycle (Total)
system.cpu.fetch.rateDist::8                   688317     16.90%    100.00% # Number of instructions fetched each cycle (Total)
system.cpu.fetch.rateDist::overflows                0      0.00%    100.00% # Number of instructions fetched each cycle (Total)
system.cpu.fetch.rateDist::min_value                0                       # Number of instructions fetched each cycle (Total)
system.cpu.fetch.rateDist::max_value                8                       # Number of instructions fetched each cycle (Total)
system.cpu.fetch.rateDist::total              4074057                       # Number of instructions fetched each cycle (Total)
system.cpu.fetch.branchRate                  0.129000                       # Number of branch fetches per cycle
system.cpu.fetch.rate                        1.376440                       # Number of inst fetches per cycle
system.cpu.decode.IdleCycles                   477193                       # Number of cycles decode is idle
system.cpu.decode.BlockedCycles               2493618                       # Number of cycles decode is blocked
system.cpu.decode.RunCycles                    131083                       # Number of cycles decode is running
system.cpu.decode.UnblockCycles                969446                       # Number of cycles decode is unblocking
system.cpu.decode.SquashCycles                   2717                       # Number of cycles decode is squashing
system.cpu.decode.DecodedInsts                8766416                       # Number of instructions handled by decode
system.cpu.rename.SquashCycles                   2717                       # Number of cycles rename is squashing
system.cpu.rename.IdleCycles                   576988                       # Number of cycles rename is idle
system.cpu.rename.BlockCycles                 1124536                       # Number of cycles rename is blocking
system.cpu.rename.serializeStallCycles           2033                       # count of cycles rename stalled for serializing inst
system.cpu.rename.RunCycles                    977990                       # Number of cycles rename is running
system.cpu.rename.UnblockCycles               1389793                       # Number of cycles rename is unblocking
system.cpu.rename.RenamedInsts                8755754                       # Number of instructions processed by rename
system.cpu.rename.ROBFullEvents                112192                       # Number of times rename has blocked due to ROB full
system.cpu.rename.IQFullEvents                1159699                       # Number of times rename has blocked due to IQ full
system.cpu.rename.LQFullEvents                    310                       # Number of times rename has blocked due to LQ full
system.cpu.rename.SQFullEvents                  16661                       # Number of times rename has blocked due to SQ full
system.cpu.rename.RenamedOperands            16307251                       # Number of destination operands rename has renamed
system.cpu.rename.RenameLookups              20152200                       # Number of register rename lookups that rename has made
system.cpu.rename.int_rename_lookups         13388853                       # Number of integer rename lookups
system.cpu.rename.fp_rename_lookups             11160                       # Number of floating rename lookups
system.cpu.rename.CommittedMaps              16177471                       # Number of HB maps that are committed
system.cpu.rename.UndoneMaps                   129780                       # Number of HB maps that are undone due to squashing
system.cpu.rename.serializingInsts                 88                       # count of serializing insts renamed
system.cpu.rename.tempSerializingInsts             60                       # count of temporary serializing insts renamed
system.cpu.rename.skidInsts                   3101390                       # count of insts added to the skid buffer
system.cpu.memDep0.insertedLoads               534027                       # Number of loads inserted to the mem dependence unit.
system.cpu.memDep0.insertedStores               16153                       # Number of stores inserted to the mem dependence unit.
system.cpu.memDep0.conflictingLoads              1017                       # Number of conflicting loads.
system.cpu.memDep0.conflictingStores              284                       # Number of conflicting stores.
system.cpu.iq.iqInstsAdded                    8736274                       # Number of instructions added to the IQ (excludes non-spec)
system.cpu.iq.iqNonSpecInstsAdded                  80                       # Number of non-speculative instructions added to the IQ
system.cpu.iq.iqInstsIssued                   9095087                       # Number of instructions issued
system.cpu.iq.iqSquashedInstsIssued               643                       # Number of squashed instructions issued
system.cpu.iq.iqSquashedInstsExamined           92254                       # Number of squashed instructions iterated over during squash; mainly for profiling
system.cpu.iq.iqSquashedOperandsExamined       134179                       # Number of squashed operands that are examined and possibly removed from graph
system.cpu.iq.iqSquashedNonSpecRemoved             53                       # Number of squashed non-spec instructions that were removed
system.cpu.iq.issued_per_cycle::samples       4074057                       # Number of insts issued each cycle
system.cpu.iq.issued_per_cycle::mean         2.232440                       # Number of insts issued each cycle
system.cpu.iq.issued_per_cycle::stdev        1.487325                       # Number of insts issued each cycle
system.cpu.iq.issued_per_cycle::underflows            0      0.00%      0.00% # Number of insts issued each cycle
system.cpu.iq.issued_per_cycle::0              826719     20.29%     20.29% # Number of insts issued each cycle
system.cpu.iq.issued_per_cycle::1              359149      8.82%     29.11% # Number of insts issued each cycle
system.cpu.iq.issued_per_cycle::2              897911     22.04%     51.15% # Number of insts issued each cycle
system.cpu.iq.issued_per_cycle::3             1231901     30.24%     81.39% # Number of insts issued each cycle
system.cpu.iq.issued_per_cycle::4              632950     15.54%     96.92% # Number of insts issued each cycle
system.cpu.iq.issued_per_cycle::5               69823      1.71%     98.64% # Number of insts issued each cycle
system.cpu.iq.issued_per_cycle::6               33638      0.83%     99.46% # Number of insts issued each cycle
system.cpu.iq.issued_per_cycle::7               14058      0.35%     99.81% # Number of insts issued each cycle
system.cpu.iq.issued_per_cycle::8                7908      0.19%    100.00% # Number of insts issued each cycle
system.cpu.iq.issued_per_cycle::overflows            0      0.00%    100.00% # Number of insts issued each cycle
system.cpu.iq.issued_per_cycle::min_value            0                       # Number of insts issued each cycle
system.cpu.iq.issued_per_cycle::max_value            8                       # Number of insts issued each cycle
system.cpu.iq.issued_per_cycle::total         4074057                       # Number of insts issued each cycle
system.cpu.iq.fu_full::No_OpClass                   0      0.00%      0.00% # attempts to use FU when none available
system.cpu.iq.fu_full::IntAlu                    3837      7.40%      7.40% # attempts to use FU when none available
system.cpu.iq.fu_full::IntMult                      0      0.00%      7.40% # attempts to use FU when none available
system.cpu.iq.fu_full::IntDiv                       0      0.00%      7.40% # attempts to use FU when none available
system.cpu.iq.fu_full::FloatAdd                     0      0.00%      7.40% # attempts to use FU when none available
system.cpu.iq.fu_full::FloatCmp                     0      0.00%      7.40% # attempts to use FU when none available
system.cpu.iq.fu_full::FloatCvt                     0      0.00%      7.40% # attempts to use FU when none available
system.cpu.iq.fu_full::FloatMult                    0      0.00%      7.40% # attempts to use FU when none available
system.cpu.iq.fu_full::FloatMultAcc                 0      0.00%      7.40% # attempts to use FU when none available
system.cpu.iq.fu_full::FloatDiv                     0      0.00%      7.40% # attempts to use FU when none available
system.cpu.iq.fu_full::FloatMisc                    0      0.00%      7.40% # attempts to use FU when none available
system.cpu.iq.fu_full::FloatSqrt                    0      0.00%      7.40% # attempts to use FU when none available
system.cpu.iq.fu_full::SimdAdd                      1      0.00%      7.40% # attempts to use FU when none available
system.cpu.iq.fu_full::SimdAddAcc                   0      0.00%      7.40% # attempts to use FU when none available
system.cpu.iq.fu_full::SimdAlu                     14      0.03%      7.43% # attempts to use FU when none available
system.cpu.iq.fu_full::SimdCmp                      0      0.00%      7.43% # attempts to use FU when none available
system.cpu.iq.fu_full::SimdCvt                      8      0.02%      7.44% # attempts to use FU when none available
system.cpu.iq.fu_full::SimdMisc                     2      0.00%      7.45% # attempts to use FU when none available
system.cpu.iq.fu_full::SimdMult                     0      0.00%      7.45% # attempts to use FU when none available
system.cpu.iq.fu_full::SimdMultAcc                  0      0.00%      7.45% # attempts to use FU when none available
system.cpu.iq.fu_full::SimdShift                    1      0.00%      7.45% # attempts to use FU when none available
system.cpu.iq.fu_full::SimdShiftAcc                 0      0.00%      7.45% # attempts to use FU when none available
system.cpu.iq.fu_full::SimdSqrt                     0      0.00%      7.45% # attempts to use FU when none available
system.cpu.iq.fu_full::SimdFloatAdd                 0      0.00%      7.45% # attempts to use FU when none available
system.cpu.iq.fu_full::SimdFloatAlu                 0      0.00%      7.45% # attempts to use FU when none available
system.cpu.iq.fu_full::SimdFloatCmp                 0      0.00%      7.45% # attempts to use FU when none available
system.cpu.iq.fu_full::SimdFloatCvt                 0      0.00%      7.45% # attempts to use FU when none available
system.cpu.iq.fu_full::SimdFloatDiv                 0      0.00%      7.45% # attempts to use FU when none available
system.cpu.iq.fu_full::SimdFloatMisc                0      0.00%      7.45% # attempts to use FU when none available
system.cpu.iq.fu_full::SimdFloatMult                0      0.00%      7.45% # attempts to use FU when none available
system.cpu.iq.fu_full::SimdFloatMultAcc             0      0.00%      7.45% # attempts to use FU when none available
system.cpu.iq.fu_full::SimdFloatSqrt                0      0.00%      7.45% # attempts to use FU when none available
system.cpu.iq.fu_full::SimdAes                      0      0.00%      7.45% # attempts to use FU when none available
system.cpu.iq.fu_full::SimdAesMix                   0      0.00%      7.45% # attempts to use FU when none available
system.cpu.iq.fu_full::SimdSha1Hash                 0      0.00%      7.45% # attempts to use FU when none available
system.cpu.iq.fu_full::SimdSha1Hash2                0      0.00%      7.45% # attempts to use FU when none available
system.cpu.iq.fu_full::SimdSha256Hash               0      0.00%      7.45% # attempts to use FU when none available
system.cpu.iq.fu_full::SimdSha256Hash2              0      0.00%      7.45% # attempts to use FU when none available
system.cpu.iq.fu_full::SimdShaSigma2                0      0.00%      7.45% # attempts to use FU when none available
system.cpu.iq.fu_full::SimdShaSigma3                0      0.00%      7.45% # attempts to use FU when none available
system.cpu.iq.fu_full::MemRead                  47544     91.66%     99.10% # attempts to use FU when none available
system.cpu.iq.fu_full::MemWrite                   429      0.83%     99.93% # attempts to use FU when none available
system.cpu.iq.fu_full::FloatMemRead                12      0.02%     99.95% # attempts to use FU when none available
system.cpu.iq.fu_full::FloatMemWrite               24      0.05%    100.00% # attempts to use FU when none available
system.cpu.iq.fu_full::IprAccess                    0      0.00%    100.00% # attempts to use FU when none available
system.cpu.iq.fu_full::InstPrefetch                 0      0.00%    100.00% # attempts to use FU when none available
system.cpu.iq.FU_type_0::No_OpClass              2171      0.02%      0.02% # Type of FU issued
system.cpu.iq.FU_type_0::IntAlu               8153572     89.65%     89.67% # Type of FU issued
system.cpu.iq.FU_type_0::IntMult                   24      0.00%     89.67% # Type of FU issued
system.cpu.iq.FU_type_0::IntDiv                  1159      0.01%     89.68% # Type of FU issued
system.cpu.iq.FU_type_0::FloatAdd                 136      0.00%     89.69% # Type of FU issued
system.cpu.iq.FU_type_0::FloatCmp                   0      0.00%     89.69% # Type of FU issued
system.cpu.iq.FU_type_0::FloatCvt                   0      0.00%     89.69% # Type of FU issued
system.cpu.iq.FU_type_0::FloatMult                  0      0.00%     89.69% # Type of FU issued
system.cpu.iq.FU_type_0::FloatMultAcc               0      0.00%     89.69% # Type of FU issued
system.cpu.iq.FU_type_0::FloatDiv                   0      0.00%     89.69% # Type of FU issued
system.cpu.iq.FU_type_0::FloatMisc                  0      0.00%     89.69% # Type of FU issued
system.cpu.iq.FU_type_0::FloatSqrt                  0      0.00%     89.69% # Type of FU issued
system.cpu.iq.FU_type_0::SimdAdd                  383      0.00%     89.69% # Type of FU issued
system.cpu.iq.FU_type_0::SimdAddAcc                 0      0.00%     89.69% # Type of FU issued
system.cpu.iq.FU_type_0::SimdAlu                  787      0.01%     89.70% # Type of FU issued
system.cpu.iq.FU_type_0::SimdCmp                    6      0.00%     89.70% # Type of FU issued
system.cpu.iq.FU_type_0::SimdCvt                  935      0.01%     89.71% # Type of FU issued
system.cpu.iq.FU_type_0::SimdMisc                 593      0.01%     89.72% # Type of FU issued
system.cpu.iq.FU_type_0::SimdMult                   0      0.00%     89.72% # Type of FU issued
system.cpu.iq.FU_type_0::SimdMultAcc                0      0.00%     89.72% # Type of FU issued
system.cpu.iq.FU_type_0::SimdShift                193      0.00%     89.72% # Type of FU issued
system.cpu.iq.FU_type_0::SimdShiftAcc               0      0.00%     89.72% # Type of FU issued
system.cpu.iq.FU_type_0::SimdSqrt                   0      0.00%     89.72% # Type of FU issued
system.cpu.iq.FU_type_0::SimdFloatAdd               0      0.00%     89.72% # Type of FU issued
system.cpu.iq.FU_type_0::SimdFloatAlu               0      0.00%     89.72% # Type of FU issued
system.cpu.iq.FU_type_0::SimdFloatCmp               0      0.00%     89.72% # Type of FU issued
system.cpu.iq.FU_type_0::SimdFloatCvt               0      0.00%     89.72% # Type of FU issued
system.cpu.iq.FU_type_0::SimdFloatDiv               0      0.00%     89.72% # Type of FU issued
system.cpu.iq.FU_type_0::SimdFloatMisc              0      0.00%     89.72% # Type of FU issued
system.cpu.iq.FU_type_0::SimdFloatMult              0      0.00%     89.72% # Type of FU issued
system.cpu.iq.FU_type_0::SimdFloatMultAcc            0      0.00%     89.72% # Type of FU issued
system.cpu.iq.FU_type_0::SimdFloatSqrt              0      0.00%     89.72% # Type of FU issued
system.cpu.iq.FU_type_0::SimdAes                    0      0.00%     89.72% # Type of FU issued
system.cpu.iq.FU_type_0::SimdAesMix                 0      0.00%     89.72% # Type of FU issued
system.cpu.iq.FU_type_0::SimdSha1Hash               0      0.00%     89.72% # Type of FU issued
system.cpu.iq.FU_type_0::SimdSha1Hash2              0      0.00%     89.72% # Type of FU issued
system.cpu.iq.FU_type_0::SimdSha256Hash             0      0.00%     89.72% # Type of FU issued
system.cpu.iq.FU_type_0::SimdSha256Hash2            0      0.00%     89.72% # Type of FU issued
system.cpu.iq.FU_type_0::SimdShaSigma2              0      0.00%     89.72% # Type of FU issued
system.cpu.iq.FU_type_0::SimdShaSigma3              0      0.00%     89.72% # Type of FU issued
system.cpu.iq.FU_type_0::MemRead               919868     10.11%     99.83% # Type of FU issued
system.cpu.iq.FU_type_0::MemWrite               13487      0.15%     99.98% # Type of FU issued
system.cpu.iq.FU_type_0::FloatMemRead            1380      0.02%    100.00% # Type of FU issued
system.cpu.iq.FU_type_0::FloatMemWrite            393      0.00%    100.00% # Type of FU issued
system.cpu.iq.FU_type_0::IprAccess                  0      0.00%    100.00% # Type of FU issued
system.cpu.iq.FU_type_0::InstPrefetch               0      0.00%    100.00% # Type of FU issued
system.cpu.iq.FU_type_0::total                9095087                       # Type of FU issued
system.cpu.iq.rate                           2.213509                       # Inst issue rate
system.cpu.iq.fu_busy_cnt                       51872                       # FU busy when requested
system.cpu.iq.fu_busy_rate                   0.005703                       # FU busy rate (busy events/executed inst)
system.cpu.iq.int_inst_queue_reads           22306891                       # Number of integer instruction queue reads
system.cpu.iq.int_inst_queue_writes           8819137                       # Number of integer instruction queue writes
system.cpu.iq.int_inst_queue_wakeup_accesses      8690848                       # Number of integer instruction queue wakeup accesses
system.cpu.iq.fp_inst_queue_reads                9855                       # Number of floating instruction queue reads
system.cpu.iq.fp_inst_queue_writes               9512                       # Number of floating instruction queue writes
system.cpu.iq.fp_inst_queue_wakeup_accesses         4456                       # Number of floating instruction queue wakeup accesses
system.cpu.iq.vec_inst_queue_reads                  0                       # Number of vector instruction queue reads
system.cpu.iq.vec_inst_queue_writes                 0                       # Number of vector instruction queue writes
system.cpu.iq.vec_inst_queue_wakeup_accesses            0                       # Number of vector instruction queue wakeup accesses
system.cpu.iq.int_alu_accesses                9139855                       # Number of integer alu accesses
system.cpu.iq.fp_alu_accesses                    4933                       # Number of floating point alu accesses
system.cpu.iq.vec_alu_accesses                      0                       # Number of vector alu accesses
system.cpu.iew.lsq.thread0.forwLoads             2409                       # Number of loads that had data forwarded from stores
system.cpu.iew.lsq.thread0.invAddrLoads             0                       # Number of loads ignored due to an invalid address
system.cpu.iew.lsq.thread0.squashedLoads        13755                       # Number of loads squashed
system.cpu.iew.lsq.thread0.ignoredResponses           10                       # Number of memory responses ignored because the instruction is squashed
system.cpu.iew.lsq.thread0.memOrderViolation           46                       # Number of memory ordering violations
system.cpu.iew.lsq.thread0.squashedStores         6398                       # Number of stores squashed
system.cpu.iew.lsq.thread0.invAddrSwpfs             0                       # Number of software prefetches ignored due to an invalid address
system.cpu.iew.lsq.thread0.blockedLoads             0                       # Number of blocked loads due to partial load-store forwarding
system.cpu.iew.lsq.thread0.rescheduledLoads            5                       # Number of loads that were rescheduled
system.cpu.iew.lsq.thread0.cacheBlocked        391053                       # Number of times an access to memory failed due to the cache being blocked
system.cpu.iew.iewIdleCycles                        0                       # Number of cycles IEW is idle
system.cpu.iew.iewSquashCycles                   2717                       # Number of cycles IEW is squashing
system.cpu.iew.iewBlockCycles                   43141                       # Number of cycles IEW is blocking
system.cpu.iew.iewUnblockCycles                  4294                       # Number of cycles IEW is unblocking
system.cpu.iew.iewDispatchedInsts             8736354                       # Number of instructions dispatched to IQ
system.cpu.iew.iewDispSquashedInsts               148                       # Number of squashed instructions skipped by dispatch
system.cpu.iew.iewDispLoadInsts                534027                       # Number of dispatched load instructions
system.cpu.iew.iewDispStoreInsts                16153                       # Number of dispatched store instructions
system.cpu.iew.iewDispNonSpecInsts                 58                       # Number of dispatched non-speculative instructions
system.cpu.iew.iewIQFullEvents                    588                       # Number of times the IQ has become full, causing a stall
system.cpu.iew.iewLSQFullEvents                  3483                       # Number of times the LSQ has become full, causing a stall
system.cpu.iew.memOrderViolationEvents             46                       # Number of memory order violations
system.cpu.iew.predictedTakenIncorrect            681                       # Number of branches that were predicted taken incorrectly
system.cpu.iew.predictedNotTakenIncorrect         2692                       # Number of branches that were predicted not taken incorrectly
system.cpu.iew.branchMispredicts                 3373                       # Number of branch mispredicts detected at execute
system.cpu.iew.iewExecutedInsts               9089566                       # Number of executed instructions
system.cpu.iew.iewExecLoadInsts                919926                       # Number of load instructions executed
system.cpu.iew.iewExecSquashedInsts              5521                       # Number of squashed instructions skipped in execute
system.cpu.iew.exec_swp                             0                       # number of swp insts executed
system.cpu.iew.exec_nop                             0                       # number of nop insts executed
system.cpu.iew.exec_refs                       933300                       # number of memory reference insts executed
system.cpu.iew.exec_branches                   518326                       # Number of branches executed
system.cpu.iew.exec_stores                      13374                       # Number of stores executed
system.cpu.iew.exec_rate                     2.212165                       # Inst execution rate
system.cpu.iew.wb_sent                        8696686                       # cumulative count of insts sent to commit
system.cpu.iew.wb_count                       8695304                       # cumulative count of insts written-back
system.cpu.iew.wb_producers                   7911932                       # num instructions producing a value
system.cpu.iew.wb_consumers                  14509714                       # num instructions consuming a value
system.cpu.iew.wb_rate                       2.116212                       # insts written-back per cycle
system.cpu.iew.wb_fanout                     0.545285                       # average fanout of values written-back
system.cpu.commit.commitSquashedInsts           92379                       # The number of squashed insts skipped by commit
system.cpu.commit.commitNonSpecStalls              27                       # The number of times commit has been forced to stall to communicate backwards
system.cpu.commit.branchMispredicts              2685                       # The number of times a branch was mispredicted
system.cpu.commit.committed_per_cycle::samples      4060123                       # Number of insts commited each cycle
system.cpu.commit.committed_per_cycle::mean     2.129024                       # Number of insts commited each cycle
system.cpu.commit.committed_per_cycle::stdev     3.403271                       # Number of insts commited each cycle
system.cpu.commit.committed_per_cycle::underflows            0      0.00%      0.00% # Number of insts commited each cycle
system.cpu.commit.committed_per_cycle::0      2542441     62.62%     62.62% # Number of insts commited each cycle
system.cpu.commit.committed_per_cycle::1       482861     11.89%     74.51% # Number of insts commited each cycle
system.cpu.commit.committed_per_cycle::2         8327      0.21%     74.72% # Number of insts commited each cycle
system.cpu.commit.committed_per_cycle::3         8271      0.20%     74.92% # Number of insts commited each cycle
system.cpu.commit.committed_per_cycle::4         3621      0.09%     75.01% # Number of insts commited each cycle
system.cpu.commit.committed_per_cycle::5         2738      0.07%     75.08% # Number of insts commited each cycle
system.cpu.commit.committed_per_cycle::6         1141      0.03%     75.11% # Number of insts commited each cycle
system.cpu.commit.committed_per_cycle::7         1033      0.03%     75.13% # Number of insts commited each cycle
system.cpu.commit.committed_per_cycle::8      1009690     24.87%    100.00% # Number of insts commited each cycle
system.cpu.commit.committed_per_cycle::overflows            0      0.00%    100.00% # Number of insts commited each cycle
system.cpu.commit.committed_per_cycle::min_value            0                       # Number of insts commited each cycle
system.cpu.commit.committed_per_cycle::max_value            8                       # Number of insts commited each cycle
system.cpu.commit.committed_per_cycle::total      4060123                       # Number of insts commited each cycle
system.cpu.commit.committedInsts              5577901                       # Number of instructions committed
system.cpu.commit.committedOps                8644099                       # Number of ops (including micro ops) committed
system.cpu.commit.swp_count                         0                       # Number of s/w prefetches committed
system.cpu.commit.refs                         530027                       # Number of memory references committed
system.cpu.commit.loads                        520272                       # Number of loads committed
system.cpu.commit.membars                           0                       # Number of memory barriers committed
system.cpu.commit.branches                     515040                       # Number of branches committed
system.cpu.commit.vec_insts                         0                       # Number of committed Vector instructions.
system.cpu.commit.fp_insts                       3004                       # Number of committed floating point instructions.
system.cpu.commit.int_insts                   8641212                       # Number of committed integer instructions.
system.cpu.commit.function_calls                  588                       # Number of function calls committed.
system.cpu.commit.op_class_0::No_OpClass         1155      0.01%      0.01% # Class of committed instruction
system.cpu.commit.op_class_0::IntAlu          8109864     93.82%     93.83% # Class of committed instruction
system.cpu.commit.op_class_0::IntMult              11      0.00%     93.83% # Class of committed instruction
system.cpu.commit.op_class_0::IntDiv             1083      0.01%     93.85% # Class of committed instruction
system.cpu.commit.op_class_0::FloatAdd             18      0.00%     93.85% # Class of committed instruction
system.cpu.commit.op_class_0::FloatCmp              0      0.00%     93.85% # Class of committed instruction
system.cpu.commit.op_class_0::FloatCvt              0      0.00%     93.85% # Class of committed instruction
system.cpu.commit.op_class_0::FloatMult             0      0.00%     93.85% # Class of committed instruction
system.cpu.commit.op_class_0::FloatMultAcc            0      0.00%     93.85% # Class of committed instruction
system.cpu.commit.op_class_0::FloatDiv              0      0.00%     93.85% # Class of committed instruction
system.cpu.commit.op_class_0::FloatMisc             0      0.00%     93.85% # Class of committed instruction
system.cpu.commit.op_class_0::FloatSqrt             0      0.00%     93.85% # Class of committed instruction
system.cpu.commit.op_class_0::SimdAdd             284      0.00%     93.85% # Class of committed instruction
system.cpu.commit.op_class_0::SimdAddAcc            0      0.00%     93.85% # Class of committed instruction
system.cpu.commit.op_class_0::SimdAlu             403      0.00%     93.85% # Class of committed instruction
system.cpu.commit.op_class_0::SimdCmp               6      0.00%     93.85% # Class of committed instruction
system.cpu.commit.op_class_0::SimdCvt             664      0.01%     93.86% # Class of committed instruction
system.cpu.commit.op_class_0::SimdMisc            482      0.01%     93.87% # Class of committed instruction
system.cpu.commit.op_class_0::SimdMult              0      0.00%     93.87% # Class of committed instruction
system.cpu.commit.op_class_0::SimdMultAcc            0      0.00%     93.87% # Class of committed instruction
system.cpu.commit.op_class_0::SimdShift           102      0.00%     93.87% # Class of committed instruction
system.cpu.commit.op_class_0::SimdShiftAcc            0      0.00%     93.87% # Class of committed instruction
system.cpu.commit.op_class_0::SimdSqrt              0      0.00%     93.87% # Class of committed instruction
system.cpu.commit.op_class_0::SimdFloatAdd            0      0.00%     93.87% # Class of committed instruction
system.cpu.commit.op_class_0::SimdFloatAlu            0      0.00%     93.87% # Class of committed instruction
system.cpu.commit.op_class_0::SimdFloatCmp            0      0.00%     93.87% # Class of committed instruction
system.cpu.commit.op_class_0::SimdFloatCvt            0      0.00%     93.87% # Class of committed instruction
system.cpu.commit.op_class_0::SimdFloatDiv            0      0.00%     93.87% # Class of committed instruction
system.cpu.commit.op_class_0::SimdFloatMisc            0      0.00%     93.87% # Class of committed instruction
system.cpu.commit.op_class_0::SimdFloatMult            0      0.00%     93.87% # Class of committed instruction
system.cpu.commit.op_class_0::SimdFloatMultAcc            0      0.00%     93.87% # Class of committed instruction
system.cpu.commit.op_class_0::SimdFloatSqrt            0      0.00%     93.87% # Class of committed instruction
system.cpu.commit.op_class_0::SimdAes               0      0.00%     93.87% # Class of committed instruction
system.cpu.commit.op_class_0::SimdAesMix            0      0.00%     93.87% # Class of committed instruction
system.cpu.commit.op_class_0::SimdSha1Hash            0      0.00%     93.87% # Class of committed instruction
system.cpu.commit.op_class_0::SimdSha1Hash2            0      0.00%     93.87% # Class of committed instruction
system.cpu.commit.op_class_0::SimdSha256Hash            0      0.00%     93.87% # Class of committed instruction
system.cpu.commit.op_class_0::SimdSha256Hash2            0      0.00%     93.87% # Class of committed instruction
system.cpu.commit.op_class_0::SimdShaSigma2            0      0.00%     93.87% # Class of committed instruction
system.cpu.commit.op_class_0::SimdShaSigma3            0      0.00%     93.87% # Class of committed instruction
system.cpu.commit.op_class_0::MemRead          519610      6.01%     99.88% # Class of committed instruction
system.cpu.commit.op_class_0::MemWrite           9419      0.11%     99.99% # Class of committed instruction
system.cpu.commit.op_class_0::FloatMemRead          662      0.01%    100.00% # Class of committed instruction
system.cpu.commit.op_class_0::FloatMemWrite          336      0.00%    100.00% # Class of committed instruction
system.cpu.commit.op_class_0::IprAccess             0      0.00%    100.00% # Class of committed instruction
system.cpu.commit.op_class_0::InstPrefetch            0      0.00%    100.00% # Class of committed instruction
system.cpu.commit.op_class_0::total           8644099                       # Class of committed instruction
system.cpu.commit.bw_lim_events               1009690                       # number cycles where commit BW limit reached
system.cpu.rob.rob_reads                     11786911                       # The number of ROB reads
system.cpu.rob.rob_writes                    17487065                       # The number of ROB writes
system.cpu.timesIdled                             465                       # Number of times that the entire CPU went into an idle state and unscheduled itself
system.cpu.idleCycles                           34843                       # Total number of cycles that the CPU has spent unscheduled due to idling
system.cpu.committedInsts                     5577901                       # Number of Instructions Simulated
system.cpu.committedOps                       8644099                       # Number of Ops (including micro ops) Simulated
system.cpu.cpi                               0.736639                       # CPI: Cycles Per Instruction
system.cpu.cpi_total                         0.736639                       # CPI: Total CPI of All Threads
system.cpu.ipc                               1.357517                       # IPC: Instructions Per Cycle
system.cpu.ipc_total                         1.357517                       # IPC: Total IPC of All Threads
system.cpu.int_regfile_reads                 14067847                       # number of integer regfile reads
system.cpu.int_regfile_writes                 8161749                       # number of integer regfile writes
system.cpu.fp_regfile_reads                      7041                       # number of floating regfile reads
system.cpu.fp_regfile_writes                     3689                       # number of floating regfile writes
system.cpu.cc_regfile_reads                   5100628                       # number of cc regfile reads
system.cpu.cc_regfile_writes                  8068092                       # number of cc regfile writes
system.cpu.misc_regfile_reads                 1974511                       # number of misc regfile reads
system.cpu.dcache.tags.pwrStateResidencyTicks::UNDEFINED   4108899000                       # Cumulative time (in ticks) in various power states
system.cpu.dcache.tags.tagsinuse          1008.064731                       # Cycle average of tags in use
system.cpu.dcache.tags.total_refs              531802                       # Total number of references to valid blocks.
system.cpu.dcache.tags.sampled_refs            494668                       # Sample count of references to valid blocks.
system.cpu.dcache.tags.avg_refs              1.075069                       # Average number of references to valid blocks.
system.cpu.dcache.tags.warmup_cycle            232000                       # Cycle when the warmup percentage was hit.
system.cpu.dcache.tags.occ_blocks::.cpu.data  1008.064731                       # Average occupied blocks per requestor
system.cpu.dcache.tags.occ_percent::.cpu.data     0.984438                       # Average percentage of cache occupancy
system.cpu.dcache.tags.occ_percent::total     0.984438                       # Average percentage of cache occupancy
system.cpu.dcache.tags.occ_task_id_blocks::1024         1024                       # Occupied blocks per task id
system.cpu.dcache.tags.age_task_id_blocks_1024::0          419                       # Occupied blocks per task id
system.cpu.dcache.tags.age_task_id_blocks_1024::1          477                       # Occupied blocks per task id
system.cpu.dcache.tags.age_task_id_blocks_1024::3          128                       # Occupied blocks per task id
[...]
system.l2.ReadSharedReq_accesses::.cpu.data       494238                       # number of ReadSharedReq accesses(hits+misses)
system.l2.ReadSharedReq_accesses::total        494238                       # number of ReadSharedReq accesses(hits+misses)
system.l2.demand_accesses::.cpu.inst              816                       # number of demand (read+write) accesses
system.l2.demand_accesses::.cpu.data           494668                       # number of demand (read+write) accesses
system.l2.demand_accesses::total               495484                       # number of demand (read+write) accesses
system.l2.overall_accesses::.cpu.inst             816                       # number of overall (read+write) accesses
system.l2.overall_accesses::.cpu.data          494668                       # number of overall (read+write) accesses
system.l2.overall_accesses::total              495484                       # number of overall (read+write) accesses
system.l2.ReadExReq_miss_rate::.cpu.data     0.969767                       # miss rate for ReadExReq accesses
system.l2.ReadExReq_miss_rate::total         0.969767                       # miss rate for ReadExReq accesses
system.l2.ReadCleanReq_miss_rate::.cpu.inst     0.984069                       # miss rate for ReadCleanReq accesses
system.l2.ReadCleanReq_miss_rate::total      0.984069                       # miss rate for ReadCleanReq accesses
system.l2.ReadSharedReq_miss_rate::.cpu.data     0.068619                       # miss rate for ReadSharedReq accesses
system.l2.ReadSharedReq_miss_rate::total     0.068619                       # miss rate for ReadSharedReq accesses
system.l2.demand_miss_rate::.cpu.inst        0.984069                       # miss rate for demand accesses
system.l2.demand_miss_rate::.cpu.data        0.069402                       # miss rate for demand accesses
system.l2.demand_miss_rate::total            0.070908                       # miss rate for demand accesses
system.l2.overall_miss_rate::.cpu.inst       0.984069                       # miss rate for overall accesses
system.l2.overall_miss_rate::.cpu.data       0.069402                       # miss rate for overall accesses
system.l2.overall_miss_rate::total           0.070908                       # miss rate for overall accesses
system.l2.ReadExReq_avg_miss_latency::.cpu.data 101717.026379                       # average ReadExReq miss latency
system.l2.ReadExReq_avg_miss_latency::total 101717.026379                       # average ReadExReq miss latency
system.l2.ReadCleanReq_avg_miss_latency::.cpu.inst 105136.986301                       # average ReadCleanReq miss latency
system.l2.ReadCleanReq_avg_miss_latency::total 105136.986301                       # average ReadCleanReq miss latency
system.l2.ReadSharedReq_avg_miss_latency::.cpu.data 126233.915197                       # average ReadSharedReq miss latency
system.l2.ReadSharedReq_avg_miss_latency::total 126233.915197                       # average ReadSharedReq miss latency
system.l2.demand_avg_miss_latency::.cpu.inst 105136.986301                       # average overall miss latency
system.l2.demand_avg_miss_latency::.cpu.data 125936.121872                       # average overall miss latency
system.l2.demand_avg_miss_latency::total 125460.750270                       # average overall miss latency
system.l2.overall_avg_miss_latency::.cpu.inst 105136.986301                       # average overall miss latency
system.l2.overall_avg_miss_latency::.cpu.data 125936.121872                       # average overall miss latency
system.l2.overall_avg_miss_latency::total 125460.750270                       # average overall miss latency
system.l2.blocked_cycles::no_mshrs                  0                       # number of cycles access was blocked
system.l2.blocked_cycles::no_targets                0                       # number of cycles access was blocked
system.l2.blocked::no_mshrs                         0                       # number of cycles access was blocked
system.l2.blocked::no_targets                       0                       # number of cycles access was blocked
system.l2.avg_blocked_cycles::no_mshrs            nan                       # average number of cycles each access was blocked
system.l2.avg_blocked_cycles::no_targets          nan                       # average number of cycles each access was blocked
system.l2.writebacks::.writebacks                 403                       # number of writebacks
system.l2.writebacks::total                       403                       # number of writebacks
system.l2.ReadExReq_mshr_misses::.cpu.data          417                       # number of ReadExReq MSHR misses
system.l2.ReadExReq_mshr_misses::total            417                       # number of ReadExReq MSHR misses
system.l2.ReadCleanReq_mshr_misses::.cpu.inst          803                       # number of ReadCleanReq MSHR misses
system.l2.ReadCleanReq_mshr_misses::total          803                       # number of ReadCleanReq MSHR misses
system.l2.ReadSharedReq_mshr_misses::.cpu.data        33914                       # number of ReadSharedReq MSHR misses
system.l2.ReadSharedReq_mshr_misses::total        33914                       # number of ReadSharedReq MSHR misses
system.l2.demand_mshr_misses::.cpu.inst           803                       # number of demand (read+write) MSHR misses
system.l2.demand_mshr_misses::.cpu.data         34331                       # number of demand (read+write) MSHR misses
system.l2.demand_mshr_misses::total             35134                       # number of demand (read+write) MSHR misses
system.l2.overall_mshr_misses::.cpu.inst          803                       # number of overall MSHR misses
system.l2.overall_mshr_misses::.cpu.data        34331                       # number of overall MSHR misses
system.l2.overall_mshr_misses::total            35134                       # number of overall MSHR misses
system.l2.ReadExReq_mshr_miss_latency::.cpu.data     34076000                       # number of ReadExReq MSHR miss cycles
system.l2.ReadExReq_mshr_miss_latency::total     34076000                       # number of ReadExReq MSHR miss cycles
system.l2.ReadCleanReq_mshr_miss_latency::.cpu.inst     68365000                       # number of ReadCleanReq MSHR miss cycles
system.l2.ReadCleanReq_mshr_miss_latency::total     68365000                       # number of ReadCleanReq MSHR miss cycles
system.l2.ReadSharedReq_mshr_miss_latency::.cpu.data   3602817000                       # number of ReadSharedReq MSHR miss cycles
system.l2.ReadSharedReq_mshr_miss_latency::total   3602817000                       # number of ReadSharedReq MSHR miss cycles
system.l2.demand_mshr_miss_latency::.cpu.inst     68365000                       # number of demand (read+write) MSHR miss cycles
system.l2.demand_mshr_miss_latency::.cpu.data   3636893000                       # number of demand (read+write) MSHR miss cycles
system.l2.demand_mshr_miss_latency::total   3705258000                       # number of demand (read+write) MSHR miss cycles
system.l2.overall_mshr_miss_latency::.cpu.inst     68365000                       # number of overall MSHR miss cycles
system.l2.overall_mshr_miss_latency::.cpu.data   3636893000                       # number of overall MSHR miss cycles
system.l2.overall_mshr_miss_latency::total   3705258000                       # number of overall MSHR miss cycles
system.l2.ReadExReq_mshr_miss_rate::.cpu.data     0.969767                       # mshr miss rate for ReadExReq accesses
system.l2.ReadExReq_mshr_miss_rate::total     0.969767                       # mshr miss rate for ReadExReq accesses
system.l2.ReadCleanReq_mshr_miss_rate::.cpu.inst     0.984069                       # mshr miss rate for ReadCleanReq accesses
system.l2.ReadCleanReq_mshr_miss_rate::total     0.984069                       # mshr miss rate for ReadCleanReq accesses
system.l2.ReadSharedReq_mshr_miss_rate::.cpu.data     0.068619                       # mshr miss rate for ReadSharedReq accesses
system.l2.ReadSharedReq_mshr_miss_rate::total     0.068619                       # mshr miss rate for ReadSharedReq accesses
system.l2.demand_mshr_miss_rate::.cpu.inst     0.984069                       # mshr miss rate for demand accesses
system.l2.demand_mshr_miss_rate::.cpu.data     0.069402                       # mshr miss rate for demand accesses
system.l2.demand_mshr_miss_rate::total       0.070908                       # mshr miss rate for demand accesses
system.l2.overall_mshr_miss_rate::.cpu.inst     0.984069                       # mshr miss rate for overall accesses
system.l2.overall_mshr_miss_rate::.cpu.data     0.069402                       # mshr miss rate for overall accesses
system.l2.overall_mshr_miss_rate::total      0.070908                       # mshr miss rate for overall accesses
system.l2.ReadExReq_avg_mshr_miss_latency::.cpu.data 81717.026379                       # average ReadExReq mshr miss latency
system.l2.ReadExReq_avg_mshr_miss_latency::total 81717.026379                       # average ReadExReq mshr miss latency
system.l2.ReadCleanReq_avg_mshr_miss_latency::.cpu.inst 85136.986301                       # average ReadCleanReq mshr miss latency
system.l2.ReadCleanReq_avg_mshr_miss_latency::total 85136.986301                       # average ReadCleanReq mshr miss latency
system.l2.ReadSharedReq_avg_mshr_miss_latency::.cpu.data 106233.915197                       # average ReadSharedReq mshr miss latency
system.l2.ReadSharedReq_avg_mshr_miss_latency::total 106233.915197                       # average ReadSharedReq mshr miss latency
system.l2.demand_avg_mshr_miss_latency::.cpu.inst 85136.986301                       # average overall mshr miss latency
system.l2.demand_avg_mshr_miss_latency::.cpu.data 105936.121872                       # average overall mshr miss latency
system.l2.demand_avg_mshr_miss_latency::total 105460.750270                       # average overall mshr miss latency
system.l2.overall_avg_mshr_miss_latency::.cpu.inst 85136.986301                       # average overall mshr miss latency
system.l2.overall_avg_mshr_miss_latency::.cpu.data 105936.121872                       # average overall mshr miss latency
system.l2.overall_avg_mshr_miss_latency::total 105460.750270                       # average overall mshr miss latency
system.l2.replacements                           2393                       # number of replacements
system.membus.snoop_filter.tot_requests         36698                       # Total number of requests made to the snoop filter.
system.membus.snoop_filter.hit_single_requests         1564                       # Number of requests hitting in the snoop filter with a single holder of the requested data.
system.membus.snoop_filter.hit_multi_requests            0                       # Number of requests hitting in the snoop filter with multiple (>1) holders of the requested data.
system.membus.snoop_filter.tot_snoops               0                       # Total number of snoops made to the snoop filter.
system.membus.snoop_filter.hit_single_snoops            0                       # Number of snoops hitting in the snoop filter with a single holder of the requested data.
system.membus.snoop_filter.hit_multi_snoops            0                       # Number of snoops hitting in the snoop filter with multiple (>1) holders of the requested data.
system.membus.pwrStateResidencyTicks::UNDEFINED   4108899000                       # Cumulative time (in ticks) in various power states
system.membus.trans_dist::ReadResp              34717                       # Transaction distribution
system.membus.trans_dist::WritebackDirty          403                       # Transaction distribution
system.membus.trans_dist::CleanEvict             1161                       # Transaction distribution
system.membus.trans_dist::ReadExReq               417                       # Transaction distribution
system.membus.trans_dist::ReadExResp              417                       # Transaction distribution
system.membus.trans_dist::ReadSharedReq         34717                       # Transaction distribution
system.membus.pkt_count_system.l2.mem_side::system.mem_ctrls.port        71832                       # Packet count per connected master and slave (bytes)
system.membus.pkt_count_system.l2.mem_side::total        71832                       # Packet count per connected master and slave (bytes)
system.membus.pkt_count::total                  71832                       # Packet count per connected master and slave (bytes)
system.membus.pkt_size_system.l2.mem_side::system.mem_ctrls.port      2274368                       # Cumulative packet size per connected master and slave (bytes)
system.membus.pkt_size_system.l2.mem_side::total      2274368                       # Cumulative packet size per connected master and slave (bytes)
system.membus.pkt_size::total                 2274368                       # Cumulative packet size per connected master and slave (bytes)
system.membus.snoops                                0                       # Total snoops (count)
system.membus.snoopTraffic                          0                       # Total snoop traffic (bytes)
system.membus.snoop_fanout::samples             35134                       # Request fanout histogram
system.membus.snoop_fanout::mean                    0                       # Request fanout histogram
system.membus.snoop_fanout::stdev                   0                       # Request fanout histogram
system.membus.snoop_fanout::underflows              0      0.00%      0.00% # Request fanout histogram
system.membus.snoop_fanout::0                   35134    100.00%    100.00% # Request fanout histogram
system.membus.snoop_fanout::1                       0      0.00%    100.00% # Request fanout histogram
system.membus.snoop_fanout::overflows               0      0.00%    100.00% # Request fanout histogram
system.membus.snoop_fanout::min_value               0                       # Request fanout histogram
system.membus.snoop_fanout::max_value               0                       # Request fanout histogram
system.membus.snoop_fanout::total               35134                       # Request fanout histogram
system.membus.reqLayer2.occupancy            38310000                       # Layer occupancy (ticks)
system.membus.reqLayer2.utilization               0.9                       # Layer utilization (%)
system.membus.respLayer1.occupancy          196894250                       # Layer occupancy (ticks)
system.membus.respLayer1.utilization              4.8                       # Layer utilization (%)
system.tol2bus.snoop_filter.tot_requests       989219                       # Total number of requests made to the snoop filter.
system.tol2bus.snoop_filter.hit_single_requests       493736                       # Number of requests hitting in the snoop filter with a single holder of the requested data.
system.tol2bus.snoop_filter.hit_multi_requests            5                       # Number of requests hitting in the snoop filter with multiple (>1) holders of the requested data.
system.tol2bus.snoop_filter.tot_snoops            828                       # Total number of snoops made to the snoop filter.
system.tol2bus.snoop_filter.hit_single_snoops          826                       # Number of snoops hitting in the snoop filter with a single holder of the requested data.
system.tol2bus.snoop_filter.hit_multi_snoops            2                       # Number of snoops hitting in the snoop filter with multiple (>1) holders of the requested data.
system.tol2bus.pwrStateResidencyTicks::UNDEFINED   4108899000                       # Cumulative time (in ticks) in various power states
system.tol2bus.trans_dist::ReadResp            495055                       # Transaction distribution
system.tol2bus.trans_dist::WritebackDirty          849                       # Transaction distribution
system.tol2bus.trans_dist::WritebackClean           89                       # Transaction distribution
system.tol2bus.trans_dist::CleanEvict          495188                       # Transaction distribution
system.tol2bus.trans_dist::UpgradeReq               1                       # Transaction distribution
system.tol2bus.trans_dist::UpgradeResp              1                       # Transaction distribution
system.tol2bus.trans_dist::ReadExReq              430                       # Transaction distribution
system.tol2bus.trans_dist::ReadExResp             430                       # Transaction distribution
system.tol2bus.trans_dist::ReadCleanReq           817                       # Transaction distribution
system.tol2bus.trans_dist::ReadSharedReq       494238                       # Transaction distribution
system.tol2bus.pkt_count_system.cpu.icache.mem_side::system.l2.cpu_side         1722                       # Packet count per connected master and slave (bytes)
system.tol2bus.pkt_count_system.cpu.dcache.mem_side::system.l2.cpu_side      1482982                       # Packet count per connected master and slave (bytes)
system.tol2bus.pkt_count::total               1484704                       # Packet count per connected master and slave (bytes)
system.tol2bus.pkt_size_system.cpu.icache.mem_side::system.l2.cpu_side        57920                       # Cumulative packet size per connected master and slave (bytes)
system.tol2bus.pkt_size_system.cpu.dcache.mem_side::system.l2.cpu_side     31687296                       # Cumulative packet size per connected master and slave (bytes)
system.tol2bus.pkt_size::total               31745216                       # Cumulative packet size per connected master and slave (bytes)
system.tol2bus.snoops                            2394                       # Total snoops (count)
system.tol2bus.snoopTraffic                     25856                       # Total snoop traffic (bytes)
system.tol2bus.snoop_fanout::samples           497879                       # Request fanout histogram
system.tol2bus.snoop_fanout::mean            0.001681                       # Request fanout histogram
system.tol2bus.snoop_fanout::stdev           0.041065                       # Request fanout histogram
system.tol2bus.snoop_fanout::underflows             0      0.00%      0.00% # Request fanout histogram
system.tol2bus.snoop_fanout::0                 497044     99.83%     99.83% # Request fanout histogram
system.tol2bus.snoop_fanout::1                    833      0.17%    100.00% # Request fanout histogram
system.tol2bus.snoop_fanout::2                      2      0.00%    100.00% # Request fanout histogram
system.tol2bus.snoop_fanout::3                      0      0.00%    100.00% # Request fanout histogram
system.tol2bus.snoop_fanout::4                      0      0.00%    100.00% # Request fanout histogram
system.tol2bus.snoop_fanout::overflows              0      0.00%    100.00% # Request fanout histogram
system.tol2bus.snoop_fanout::min_value              0                       # Request fanout histogram
system.tol2bus.snoop_fanout::max_value              2                       # Request fanout histogram
system.tol2bus.snoop_fanout::total             497879                       # Request fanout histogram
system.tol2bus.reqLayer0.occupancy          990289000                       # Layer occupancy (ticks)
system.tol2bus.reqLayer0.utilization             24.1                       # Layer utilization (%)
system.tol2bus.respLayer0.occupancy           2451000                       # Layer occupancy (ticks)
system.tol2bus.respLayer0.utilization             0.1                       # Layer utilization (%)
system.tol2bus.respLayer1.occupancy        1484005999                       # Layer occupancy (ticks)
system.tol2bus.respLayer1.utilization            36.1                       # Layer utilization (%)

---------- End Simulation Statistics   ----------
