
---------- Begin Simulation Statistics ----------
sim_seconds                                  0.002693                       # Number of seconds simulated
sim_ticks                                  2692931000                       # Number of ticks simulated
final_tick                                 2692931000                       # Number of ticks from beginning of simulation (restored from checkpoints and never reset)
sim_freq                                 1000000000000                       # Frequency of simulated ticks
host_inst_rate                                  63194                       # Simulator instruction rate (inst/s)
host_op_rate                                   103058                       # Simulator op (including micro ops) rate (op/s)
host_tick_rate                               56858674                       # Simulator tick rate (ticks/s)
host_mem_usage                                 670488                       # Number of bytes of host memory used
host_seconds                                    47.36                       # Real time elapsed on the host
sim_insts                                     2992979                       # Number of instructions simulated
sim_ops                                       4881007                       # Number of ops (including micro ops) simulated
system.voltage_domain.voltage                       1                       # Voltage in Volts
system.clk_domain.clock                          1000                       # Clock period in ticks
system.mem_ctrls.pwrStateResidencyTicks::UNDEFINED   2692931000                       # Cumulative time (in ticks) in various power states
system.mem_ctrls.bytes_read::.cpu.inst          52928                       # Number of bytes read from this memory
system.mem_ctrls.bytes_read::.cpu.data         160576                       # Number of bytes read from this memory
system.mem_ctrls.bytes_read::total             213504                       # Number of bytes read from this memory
system.mem_ctrls.bytes_inst_read::.cpu.inst        52928                       # Number of instructions bytes read from this memory
system.mem_ctrls.bytes_inst_read::total         52928                       # Number of instructions bytes read from this memory
system.mem_ctrls.num_reads::.cpu.inst             827                       # Number of read requests responded to by this memory
system.mem_ctrls.num_reads::.cpu.data            2509                       # Number of read requests responded to by this memory
system.mem_ctrls.num_reads::total                3336                       # Number of read requests responded to by this memory
system.mem_ctrls.bw_read::.cpu.inst          19654421                       # Total read bandwidth from this memory (bytes/s)
system.mem_ctrls.bw_read::.cpu.data          59628709                       # Total read bandwidth from this memory (bytes/s)
system.mem_ctrls.bw_read::total              79283131                       # Total read bandwidth from this memory (bytes/s)
system.mem_ctrls.bw_inst_read::.cpu.inst     19654421                       # Instruction read bandwidth from this memory (bytes/s)
system.mem_ctrls.bw_inst_read::total         19654421                       # Instruction read bandwidth from this memory (bytes/s)
system.mem_ctrls.bw_total::.cpu.inst         19654421                       # Total bandwidth to/from this memory (bytes/s)
system.mem_ctrls.bw_total::.cpu.data         59628709                       # Total bandwidth to/from this memory (bytes/s)
system.mem_ctrls.bw_total::total             79283131                       # Total bandwidth to/from this memory (bytes/s)
system.mem_ctrls.avgPriority_.cpu.inst::samples       827.00                       # Average QoS priority value for accepted requests
system.mem_ctrls.avgPriority_.cpu.data::samples      2509.00                       # Average QoS priority value for accepted requests
system.mem_ctrls.priorityMinLatency      0.000000018750                       # per QoS priority minimum request to response latency (s)
system.mem_ctrls.priorityMaxLatency      0.000001099750                       # per QoS priority maximum request to response latency (s)
system.mem_ctrls.numReadWriteTurnArounds            0                       # Number of turnarounds from READ to WRITE
system.mem_ctrls.numWriteReadTurnArounds            0                       # Number of turnarounds from WRITE to READ
system.mem_ctrls.numStayReadState                7035                       # Number of times bus staying in READ state
system.mem_ctrls.numStayWriteState                  0                       # Number of times bus staying in WRITE state
system.mem_ctrls.readReqs                        3336                       # Number of read requests accepted
system.mem_ctrls.writeReqs                          0                       # Number of write requests accepted
system.mem_ctrls.readBursts                      3336                       # Number of DRAM read bursts, including those serviced by the write queue
system.mem_ctrls.writeBursts                        0                       # Number of DRAM write bursts, including those merged in the write queue
system.mem_ctrls.bytesReadDRAM                 213504                       # Total number of bytes read from DRAM
system.mem_ctrls.bytesReadWrQ                       0                       # Total number of bytes read from write queue
system.mem_ctrls.bytesWritten                       0                       # Total number of bytes written to DRAM
system.mem_ctrls.bytesReadSys                  213504                       # Total read bytes from the system interface side
system.mem_ctrls.bytesWrittenSys                    0                       # Total written bytes from the system interface side
system.mem_ctrls.servicedByWrQ                      0                       # Number of DRAM read bursts serviced by the write queue
system.mem_ctrls.mergedWrBursts                     0                       # Number of DRAM write bursts merged with an existing one
system.mem_ctrls.neitherReadNorWriteReqs            0                       # Number of requests that are neither read nor write
system.mem_ctrls.perBankRdBursts::0               191                       # Per bank write bursts
system.mem_ctrls.perBankRdBursts::1               271                       # Per bank write bursts
system.mem_ctrls.perBankRdBursts::2               334                       # Per bank write bursts
system.mem_ctrls.perBankRdBursts::3               322                       # Per bank write bursts
system.mem_ctrls.perBankRdBursts::4               260                       # Per bank write bursts
system.mem_ctrls.perBankRdBursts::5               247                       # Per bank write bursts
system.mem_ctrls.perBankRdBursts::6               245                       # Per bank write bursts
system.mem_ctrls.perBankRdBursts::7               169                       # Per bank write bursts
system.mem_ctrls.perBankRdBursts::8               186                       # Per bank write bursts
system.mem_ctrls.perBankRdBursts::9                87                       # Per bank write bursts
system.mem_ctrls.perBankRdBursts::10              175                       # Per bank write bursts
system.mem_ctrls.perBankRdBursts::11              231                       # Per bank write bursts
system.mem_ctrls.perBankRdBursts::12              126                       # Per bank write bursts
system.mem_ctrls.perBankRdBursts::13              134                       # Per bank write bursts
system.mem_ctrls.perBankRdBursts::14              219                       # Per bank write bursts
system.mem_ctrls.perBankRdBursts::15              139                       # Per bank write bursts
system.mem_ctrls.perBankWrBursts::0                 0                       # Per bank write bursts
system.mem_ctrls.perBankWrBursts::1                 0                       # Per bank write bursts
system.mem_ctrls.perBankWrBursts::2                 0                       # Per bank write bursts
system.mem_ctrls.perBankWrBursts::3                 0                       # Per bank write bursts
system.mem_ctrls.perBankWrBursts::4                 0                       # Per bank write bursts
system.mem_ctrls.perBankWrBursts::5                 0                       # Per bank write bursts
system.mem_ctrls.perBankWrBursts::6                 0                       # Per bank write bursts
system.mem_ctrls.perBankWrBursts::7                 0                       # Per bank write bursts
system.mem_ctrls.perBankWrBursts::8                 0                       # Per bank write bursts
system.mem_ctrls.perBankWrBursts::9                 0                       # Per bank write bursts
system.mem_ctrls.perBankWrBursts::10                0                       # Per bank write bursts
system.mem_ctrls.perBankWrBursts::11                0                       # Per bank write bursts
system.mem_ctrls.perBankWrBursts::12                0                       # Per bank write bursts
system.mem_ctrls.perBankWrBursts::13                0                       # Per bank write bursts
system.mem_ctrls.perBankWrBursts::14                0                       # Per bank write bursts
system.mem_ctrls.perBankWrBursts::15                0                       # Per bank write bursts
system.mem_ctrls.numRdRetry                         0                       # Number of times read queue was full causing retry
system.mem_ctrls.numWrRetry                         0                       # Number of times write queue was full causing retry
system.mem_ctrls.totGap                    2692819000                       # Total gap between requests
system.mem_ctrls.readPktSize::0                     0                       # Read request sizes (log2)
system.mem_ctrls.readPktSize::1                     0                       # Read request sizes (log2)
system.mem_ctrls.readPktSize::2                     0                       # Read request sizes (log2)
system.mem_ctrls.readPktSize::3                     0                       # Read request sizes (log2)
system.mem_ctrls.readPktSize::4                     0                       # Read request sizes (log2)
system.mem_ctrls.readPktSize::5                     0                       # Read request sizes (log2)
system.mem_ctrls.readPktSize::6                  3336                       # Read request sizes (log2)
system.mem_ctrls.writePktSize::0                    0                       # Write request sizes (log2)
system.mem_ctrls.writePktSize::1                    0                       # Write request sizes (log2)
system.mem_ctrls.writePktSize::2                    0                       # Write request sizes (log2)
system.mem_ctrls.writePktSize::3                    0                       # Write request sizes (log2)
system.mem_ctrls.writePktSize::4                    0                       # Write request sizes (log2)
system.mem_ctrls.writePktSize::5                    0                       # Write request sizes (log2)
system.mem_ctrls.writePktSize::6                    0                       # Write request sizes (log2)
system.mem_ctrls.rdQLenPdf::0                    2443                       # What read queue length does an incoming req see
system.mem_ctrls.rdQLenPdf::1                     648                       # What read queue length does an incoming req see
system.mem_ctrls.rdQLenPdf::2                     221                       # What read queue length does an incoming req see
system.mem_ctrls.rdQLenPdf::3                      22                       # What read queue length does an incoming req see
system.mem_ctrls.rdQLenPdf::4                       2                       # What read queue length does an incoming req see
system.mem_ctrls.rdQLenPdf::5                       0                       # What read queue length does an incoming req see
system.mem_ctrls.rdQLenPdf::6                       0                       # What read queue length does an incoming req see
system.mem_ctrls.rdQLenPdf::7                       0                       # What read queue length does an incoming req see
system.mem_ctrls.rdQLenPdf::8                       0                       # What read queue length does an incoming req see
system.mem_ctrls.rdQLenPdf::9                       0                       # What read queue length does an incoming req see
system.mem_ctrls.rdQLenPdf::10                      0                       # What read queue length does an incoming req see
system.mem_ctrls.rdQLenPdf::11                      0                       # What read queue length does an incoming req see
system.mem_ctrls.rdQLenPdf::12                      0                       # What read queue length does an incoming req see
system.mem_ctrls.rdQLenPdf::13                      0                       # What read queue length does an incoming req see
system.mem_ctrls.rdQLenPdf::14                      0                       # What read queue length does an incoming req see
system.mem_ctrls.rdQLenPdf::15                      0                       # What read queue length does an incoming req see
system.mem_ctrls.rdQLenPdf::16                      0                       # What read queue length does an incoming req see
system.mem_ctrls.rdQLenPdf::17                      0                       # What read queue length does an incoming req see
system.mem_ctrls.rdQLenPdf::18                      0                       # What read queue length does an incoming req see
system.mem_ctrls.rdQLenPdf::19                      0                       # What read queue length does an incoming req see
system.mem_ctrls.rdQLenPdf::20                      0                       # What read queue length does an incoming req see
system.mem_ctrls.rdQLenPdf::21                      0                       # What read queue length does an incoming req see
system.mem_ctrls.rdQLenPdf::22                      0                       # What read queue length does an incoming req see
system.mem_ctrls.rdQLenPdf::23                      0                       # What read queue length does an incoming req see
system.mem_ctrls.rdQLenPdf::24                      0                       # What read queue length does an incoming req see
system.mem_ctrls.rdQLenPdf::25                      0                       # What read queue length does an incoming req see
system.mem_ctrls.rdQLenPdf::26                      0                       # What read queue length does an incoming req see
system.mem_ctrls.rdQLenPdf::27                      0                       # What read queue length does an incoming req see
system.mem_ctrls.rdQLenPdf::28                      0                       # What read queue length does an incoming req see
system.mem_ctrls.rdQLenPdf::29                      0                       # What read queue length does an incoming req see
system.mem_ctrls.rdQLenPdf::30                      0                       # What read queue length does an incoming req see
system.mem_ctrls.rdQLenPdf::31                      0                       # What read queue length does an incoming req see
system.mem_ctrls.wrQLenPdf::0                       0                       # What write queue length does an incoming req see
system.mem_ctrls.wrQLenPdf::1                       0                       # What write queue length does an incoming req see
system.mem_ctrls.wrQLenPdf::2                       0                       # What write queue length does an incoming req see
system.mem_ctrls.wrQLenPdf::3                       0                       # What write queue length does an incoming req see
system.mem_ctrls.wrQLenPdf::4                       0                       # What write queue length does an incoming req see
system.mem_ctrls.wrQLenPdf::5                       0                       # What write queue length does an incoming req see
system.mem_ctrls.wrQLenPdf::6                       0                       # What write queue length does an incoming req see
system.mem_ctrls.wrQLenPdf::7                       0                       # What write queue length does an incoming req see
system.mem_ctrls.wrQLenPdf::8                       0                       # What write queue length does an incoming req see
system.mem_ctrls.wrQLenPdf::9                       0                       # What write queue length does an incoming req see
system.mem_ctrls.wrQLenPdf::10                      0                       # What write queue length does an incoming req see
system.mem_ctrls.wrQLenPdf::11                      0                       # What write queue length does an incoming req see
system.mem_ctrls.wrQLenPdf::12                      0                       # What write queue length does an incoming req see
system.mem_ctrls.wrQLenPdf::13                      0                       # What write queue length does an incoming req see
system.mem_ctrls.wrQLenPdf::14                      0                       # What write queue length does an incoming req see
system.mem_ctrls.wrQLenPdf::15                      0                       # What write queue length does an incoming req see
system.mem_ctrls.wrQLenPdf::16                      0                       # What write queue length does an incoming req see
system.mem_ctrls.wrQLenPdf::17                      0                       # What write queue length does an incoming req see
system.mem_ctrls.wrQLenPdf::18                      0                       # What write queue length does an incoming req see
system.mem_ctrls.wrQLenPdf::19                      0                       # What write queue length does an incoming req see
system.mem_ctrls.wrQLenPdf::20                      0                       # What write queue length does an incoming req see
system.mem_ctrls.wrQLenPdf::21                      0                       # What write queue length does an incoming req see
system.mem_ctrls.wrQLenPdf::22                      0                       # What write queue length does an incoming req see
system.mem_ctrls.wrQLenPdf::23                      0                       # What write queue length does an incoming req see
system.mem_ctrls.wrQLenPdf::24                      0                       # What write queue length does an incoming req see
system.mem_ctrls.wrQLenPdf::25                      0                       # What write queue length does an incoming req see
system.mem_ctrls.wrQLenPdf::26                      0                       # What write queue length does an incoming req see
system.mem_ctrls.wrQLenPdf::27                      0                       # What write queue length does an incoming req see
system.mem_ctrls.wrQLenPdf::28                      0                       # What write queue length does an incoming req see
system.mem_ctrls.wrQLenPdf::29                      0                       # What write queue length does an incoming req see
system.mem_ctrls.wrQLenPdf::30                      0                       # What write queue length does an incoming req see
system.mem_ctrls.wrQLenPdf::31                      0                       # What write queue length does an incoming req see
system.mem_ctrls.wrQLenPdf::32                      0                       # What write queue length does an incoming req see
system.mem_ctrls.wrQLenPdf::33                      0                       # What write queue length does an incoming req see
system.mem_ctrls.wrQLenPdf::34                      0                       # What write queue length does an incoming req see
system.mem_ctrls.wrQLenPdf::35                      0                       # What write queue length does an incoming req see
system.mem_ctrls.wrQLenPdf::36                      0                       # What write queue length does an incoming req see
system.mem_ctrls.wrQLenPdf::37                      0                       # What write queue length does an incoming req see
system.mem_ctrls.wrQLenPdf::38                      0                       # What write queue length does an incoming req see
system.mem_ctrls.wrQLenPdf::39                      0                       # What write queue length does an incoming req see
system.mem_ctrls.wrQLenPdf::40                      0                       # What write queue length does an incoming req see
system.mem_ctrls.wrQLenPdf::41                      0                       # What write queue length does an incoming req see
system.mem_ctrls.wrQLenPdf::42                      0                       # What write queue length does an incoming req see
system.mem_ctrls.wrQLenPdf::43                      0                       # What write queue length does an incoming req see
system.mem_ctrls.wrQLenPdf::44                      0                       # What write queue length does an incoming req see
system.mem_ctrls.wrQLenPdf::45                      0                       # What write queue length does an incoming req see
system.mem_ctrls.wrQLenPdf::46                      0                       # What write queue length does an incoming req see
system.mem_ctrls.wrQLenPdf::47                      0                       # What write queue length does an incoming req see
system.mem_ctrls.wrQLenPdf::48                      0                       # What write queue length does an incoming req see
system.mem_ctrls.wrQLenPdf::49                      0                       # What write queue length does an incoming req see
system.mem_ctrls.wrQLenPdf::50                      0                       # What write queue length does an incoming req see
system.mem_ctrls.wrQLenPdf::51                      0                       # What write queue length does an incoming req see
system.mem_ctrls.wrQLenPdf::52                      0                       # What write queue length does an incoming req see
system.mem_ctrls.wrQLenPdf::53                      0                       # What write queue length does an incoming req see
system.mem_ctrls.wrQLenPdf::54                      0                       # What write queue length does an incoming req see
system.mem_ctrls.wrQLenPdf::55                      0                       # What write queue length does an incoming req see
system.mem_ctrls.wrQLenPdf::56                      0                       # What write queue length does an incoming req see
system.mem_ctrls.wrQLenPdf::57                      0                       # What write queue length does an incoming req see
system.mem_ctrls.wrQLenPdf::58                      0                       # What write queue length does an incoming req see
system.mem_ctrls.wrQLenPdf::59                      0                       # What write queue length does an incoming req see
system.mem_ctrls.wrQLenPdf::60                      0                       # What write queue length does an incoming req see
system.mem_ctrls.wrQLenPdf::61                      0                       # What write queue length does an incoming req see
system.mem_ctrls.wrQLenPdf::62                      0                       # What write queue length does an incoming req see
system.mem_ctrls.wrQLenPdf::63                      0                       # What write queue length does an incoming req see
system.mem_ctrls.bytesPerActivate::samples          866                       # Bytes accessed per row activation
system.mem_ctrls.bytesPerActivate::mean    244.914550                       # Bytes accessed per row activation
system.mem_ctrls.bytesPerActivate::gmean   167.488324                       # Bytes accessed per row activation
system.mem_ctrls.bytesPerActivate::stdev   265.676259                       # Bytes accessed per row activation
system.mem_ctrls.bytesPerActivate::0-127          193     22.29%     22.29% # Bytes accessed per row activation
system.mem_ctrls.bytesPerActivate::128-255          477     55.08%     77.37% # Bytes accessed per row activation
system.mem_ctrls.bytesPerActivate::256-383           49      5.66%     83.03% # Bytes accessed per row activation
system.mem_ctrls.bytesPerActivate::384-511           30      3.46%     86.49% # Bytes accessed per row activation
system.mem_ctrls.bytesPerActivate::512-639           20      2.31%     88.80% # Bytes accessed per row activation
system.mem_ctrls.bytesPerActivate::640-767           16      1.85%     90.65% # Bytes accessed per row activation
system.mem_ctrls.bytesPerActivate::768-895           11      1.27%     91.92% # Bytes accessed per row activation
system.mem_ctrls.bytesPerActivate::896-1023            8      0.92%     92.84% # Bytes accessed per row activation
system.mem_ctrls.bytesPerActivate::1024-1151           62      7.16%    100.00% # Bytes accessed per row activation
system.mem_ctrls.bytesPerActivate::total          866                       # Bytes accessed per row activation
system.mem_ctrls.masterReadBytes::.cpu.inst        52928                       # Per-master bytes read from memory
system.mem_ctrls.masterReadBytes::.cpu.data       160576                       # Per-master bytes read from memory
system.mem_ctrls.masterReadRate::.cpu.inst 19654421.149297922850                       # Per-master bytes read from memory rate (Bytes/sec)
system.mem_ctrls.masterReadRate::.cpu.data 59628709.387652337551                       # Per-master bytes read from memory rate (Bytes/sec)
system.mem_ctrls.masterReadAccesses::.cpu.inst          827                       # Per-master read serviced memory accesses
system.mem_ctrls.masterReadAccesses::.cpu.data         2509                       # Per-master read serviced memory accesses
system.mem_ctrls.masterReadTotalLat::.cpu.inst     28598500                       # Per-master read total memory access latency
system.mem_ctrls.masterReadTotalLat::.cpu.data     97894250                       # Per-master read total memory access latency
system.mem_ctrls.masterReadAvgLat::.cpu.inst     34581.02                       # Per-master read average memory access latency
system.mem_ctrls.masterReadAvgLat::.cpu.data     39017.24                       # Per-master read average memory access latency
system.mem_ctrls.totQLat                     63942750                       # Total ticks spent queuing
system.mem_ctrls.totMemAccLat               126492750                       # Total ticks spent from burst creation until serviced by the DRAM
system.mem_ctrls.totBusLat                   16680000                       # Total ticks spent in databus transfers
system.mem_ctrls.avgQLat                     19167.49                       # Average queueing delay per DRAM burst
system.mem_ctrls.avgBusLat                    5000.00                       # Average bus latency per DRAM burst
system.mem_ctrls.avgMemAccLat                37917.49                       # Average memory access latency per DRAM burst
system.mem_ctrls.avgRdBW                        79.28                       # Average DRAM read bandwidth in MiByte/s
system.mem_ctrls.avgWrBW                         0.00                       # Average achieved write bandwidth in MiByte/s
system.mem_ctrls.avgRdBWSys                     79.28                       # Average system read bandwidth in MiByte/s
system.mem_ctrls.avgWrBWSys                      0.00                       # Average system write bandwidth in MiByte/s
system.mem_ctrls.peakBW                      12800.00                       # Theoretical peak bandwidth in MiByte/s
system.mem_ctrls.busUtil                         0.62                       # Data bus utilization in percentage
system.mem_ctrls.busUtilRead                     0.62                       # Data bus utilization in percentage for reads
system.mem_ctrls.busUtilWrite                    0.00                       # Data bus utilization in percentage for writes
system.mem_ctrls.avgRdQLen                       1.03                       # Average read queue length when enqueuing
system.mem_ctrls.avgWrQLen                       0.00                       # Average write queue length when enqueuing
system.mem_ctrls.readRowHits                     2460                       # Number of row buffer hits during reads
system.mem_ctrls.writeRowHits                       0                       # Number of row buffer hits during writes
system.mem_ctrls.readRowHitRate                 73.74                       # Row buffer hit rate for reads
system.mem_ctrls.writeRowHitRate                  nan                       # Row buffer hit rate for writes
system.mem_ctrls.avgGap                     807199.94                       # Average gap between requests
system.mem_ctrls.pageHitRate                    73.74                       # Row buffer hit rate, read and write combined
system.mem_ctrls_0.actEnergy                  3912720                       # Energy for activate commands per rank (pJ)
system.mem_ctrls_0.preEnergy                  2064480                       # Energy for precharge commands per rank (pJ)
system.mem_ctrls_0.readEnergy                14558460                       # Energy for read commands per rank (pJ)
system.mem_ctrls_0.writeEnergy                      0                       # Energy for write commands per rank (pJ)
system.mem_ctrls_0.refreshEnergy         164723520.000000                       # Energy for refresh commands per rank (pJ)
system.mem_ctrls_0.actBackEnergy             54871050                       # Energy for active background per rank (pJ)
system.mem_ctrls_0.preBackEnergy              6773760                       # Energy for precharge background per rank (pJ)
system.mem_ctrls_0.actPowerDownEnergy       667679760                       # Energy for active power-down per rank (pJ)
system.mem_ctrls_0.prePowerDownEnergy       190081920                       # Energy for precharge power-down per rank (pJ)
system.mem_ctrls_0.selfRefreshEnergy        154023600                       # Energy for self refresh per rank (pJ)
system.mem_ctrls_0.totalEnergy             1258689270                       # Total energy per rank (pJ)
system.mem_ctrls_0.averagePower            467.404947                       # Core power per rank (mW)
system.mem_ctrls_0.totalIdleTime           2554800750                       # Total Idle time Per DRAM Rank
system.mem_ctrls_0.memoryStateTime::IDLE     10275000                       # Time in different power states
system.mem_ctrls_0.memoryStateTime::REF      69680000                       # Time in different power states
system.mem_ctrls_0.memoryStateTime::SREF    595748000                       # Time in different power states
system.mem_ctrls_0.memoryStateTime::PRE_PDN    495024750                       # Time in different power states
system.mem_ctrls_0.memoryStateTime::ACT      57966750                       # Time in different power states
system.mem_ctrls_0.memoryStateTime::ACT_PDN   1464236500                       # Time in different power states
system.mem_ctrls_1.actEnergy                  2341920                       # Energy for activate commands per rank (pJ)
system.mem_ctrls_1.preEnergy                  1221990                       # Energy for precharge commands per rank (pJ)
system.mem_ctrls_1.readEnergy                 9260580                       # Energy for read commands per rank (pJ)
system.mem_ctrls_1.writeEnergy                      0                       # Energy for write commands per rank (pJ)
system.mem_ctrls_1.refreshEnergy         73142160.000000                       # Energy for refresh commands per rank (pJ)
system.mem_ctrls_1.actBackEnergy             29289450                       # Energy for active background per rank (pJ)
system.mem_ctrls_1.preBackEnergy              2579520                       # Energy for precharge background per rank (pJ)
system.mem_ctrls_1.actPowerDownEnergy       287905290                       # Energy for active power-down per rank (pJ)
system.mem_ctrls_1.prePowerDownEnergy        88189920                       # Energy for precharge power-down per rank (pJ)
system.mem_ctrls_1.selfRefreshEnergy        428150400                       # Energy for self refresh per rank (pJ)
system.mem_ctrls_1.totalEnergy              922081230                       # Total energy per rank (pJ)
system.mem_ctrls_1.averagePower            342.408042                       # Core power per rank (mW)
system.mem_ctrls_1.totalIdleTime           2621913000                       # Total Idle time Per DRAM Rank
system.mem_ctrls_1.memoryStateTime::IDLE      3461000                       # Time in different power states
system.mem_ctrls_1.memoryStateTime::REF      30940000                       # Time in different power states
system.mem_ctrls_1.memoryStateTime::SREF   1760951250                       # Time in different power states
system.mem_ctrls_1.memoryStateTime::PRE_PDN    229661500                       # Time in different power states
system.mem_ctrls_1.memoryStateTime::ACT      36552750                       # Time in different power states
system.mem_ctrls_1.memoryStateTime::ACT_PDN    631364500                       # Time in different power states
system.pwrStateResidencyTicks::UNDEFINED   2692931000                       # Cumulative time (in ticks) in various power states
system.cpu.branchPred.lookups                 1377224                       # Number of BP lookups
system.cpu.branchPred.condPredicted           1377224                       # Number of conditional branches predicted
system.cpu.branchPred.condIncorrect            116941                       # Number of conditional branches incorrect
system.cpu.branchPred.BTBLookups               775169                       # Number of BTB lookups
system.cpu.branchPred.BTBHits                       0                       # Number of BTB hits
system.cpu.branchPred.BTBCorrect                    0                       # Number of correct BTB predictions (this stat may not work properly.
system.cpu.branchPred.BTBHitPct              0.000000                       # BTB Hit Percentage
system.cpu.branchPred.usedRAS                   19821                       # Number of times the RAS was used to get a target.
system.cpu.branchPred.RASInCorrect               3433                       # Number of incorrect RAS predictions.
system.cpu.branchPred.indirectLookups          775169                       # Number of indirect predictor lookups.
system.cpu.branchPred.indirectHits             404574                       # Number of indirect target hits.
system.cpu.branchPred.indirectMisses           370595                       # Number of indirect misses.
system.cpu.branchPredindirectMispredicted        44432                       # Number of mispredicted indirect branches.
system.cpu_voltage_domain.voltage                   1                       # Voltage in Volts
system.cpu_clk_domain.clock                      1000                       # Clock period in ticks
system.cpu.dtb.walker.pwrStateResidencyTicks::UNDEFINED   2692931000                       # Cumulative time (in ticks) in various power states
system.cpu.dtb.rdAccesses                      563439                       # TLB accesses on read requests
system.cpu.dtb.wrAccesses                      395772                       # TLB accesses on write requests
system.cpu.dtb.rdMisses                           469                       # TLB misses on read requests
system.cpu.dtb.wrMisses                            85                       # TLB misses on write requests
system.cpu.apic_clk_domain.clock                16000                       # Clock period in ticks
system.cpu.interrupts.pwrStateResidencyTicks::UNDEFINED   2692931000                       # Cumulative time (in ticks) in various power states
system.cpu.itb.walker.pwrStateResidencyTicks::UNDEFINED   2692931000                       # Cumulative time (in ticks) in various power states
system.cpu.itb.rdAccesses                           0                       # TLB accesses on read requests
system.cpu.itb.wrAccesses                      354721                       # TLB accesses on write requests
system.cpu.itb.rdMisses                             0                       # TLB misses on read requests
system.cpu.itb.wrMisses                           115                       # TLB misses on write requests
system.cpu.workload.numSyscalls                    27                       # Number of system calls
system.cpu.pwrStateResidencyTicks::ON      2692931000                       # Cumulative time (in ticks) in various power states
system.cpu.numCycles                          2692932                       # number of cpu cycles simulated
system.cpu.numWorkItemsStarted                      0                       # number of work items this cpu started
system.cpu.numWorkItemsCompleted                    0                       # number of work items this cpu completed
system.cpu.fetch.icacheStallCycles             429125                       # Number of cycles fetch is stalled on an Icache miss
system.cpu.fetch.Insts                        7849063                       # Number of instructions fetch has processed
system.cpu.fetch.Branches                     1377224                       # Number of branches that fetch encountered
system.cpu.fetch.predictedBranches             424395                       # Number of branches that fetch has predicted taken
system.cpu.fetch.Cycles                       2111061                       # Number of cycles fetch has run and was not squashing or blocked
system.cpu.fetch.SquashCycles                  234050                       # Number of cycles fetch has spent squashing
system.cpu.fetch.TlbCycles                        112                       # Number of cycles fetch has spent waiting for tlb
system.cpu.fetch.MiscStallCycles                   20                       # Number of cycles fetch has spent waiting on interrupts, or bad addresses, or out of MSHRs
system.cpu.fetch.PendingTrapStallCycles           299                       # Number of stall cycles due to pending traps
system.cpu.fetch.PendingQuiesceStallCycles           25                       # Number of stall cycles due to pending quiesce instructions
system.cpu.fetch.IcacheWaitRetryStallCycles           15                       # Number of stall cycles due to full MSHR
system.cpu.fetch.CacheLines                    354678                       # Number of cache lines fetched
system.cpu.fetch.IcacheSquashes                 19394                       # Number of outstanding Icache misses that were squashed
system.cpu.fetch.rateDist::samples            2657682                       # Number of instructions fetched each cycle (Total)
system.cpu.fetch.rateDist::mean              4.696824                       # Number of instructions fetched each cycle (Total)
system.cpu.fetch.rateDist::stdev             3.608609                       # Number of instructions fetched each cycle (Total)
system.cpu.fetch.rateDist::underflows               0      0.00%      0.00% # Number of instructions fetched each cycle (Total)
system.cpu.fetch.rateDist::0                   814108     30.63%     30.63% # Number of instructions fetched each cycle (Total)
system.cpu.fetch.rateDist::1                   112918      4.25%     34.88% # Number of instructions fetched each cycle (Total)
system.cpu.fetch.rateDist::2                    35761      1.35%     36.23% # Number of instructions fetched each cycle (Total)
system.cpu.fetch.rateDist::3                    76983      2.90%     39.12% # Number of instructions fetched each cycle (Total)
system.cpu.fetch.rateDist::4                   112948      4.25%     43.37% # Number of instructions fetched each cycle (Total)
system.cpu.fetch.rateDist::5                    55679      2.10%     45.47% # Number of instructions fetched each cycle (Total)
system.cpu.fetch.rateDist::6                    96523      3.63%     49.10% # Number of instructions fetched each cycle (Total)
system.cpu.fetch.rateDist::7                    64146      2.41%     51.51% # Number of instructions fetched each cycle (Total)
system.cpu.fetch.rateDist::8                  1288616     48.49%    100.00% # Number of instructions fetched each cycle (Total)
system.cpu.fetch.rateDist::overflows                0      0.00%    100.00% # Number of instructions fetched each cycle (Total)
system.cpu.fetch.rateDist::min_value                0                       # Number of instructions fetched each cycle (Total)
system.cpu.fetch.rateDist::max_value                8                       # Number of instructions fetched each cycle (Total)
system.cpu.fetch.rateDist::total              2657682                       # Number of instructions fetched each cycle (Total)
system.cpu.fetch.branchRate                  0.511422                       # Number of branch fetches per cycle
system.cpu.fetch.rate                        2.914690                       # Number of inst fetches per cycle
system.cpu.decode.IdleCycles                   421049                       # Number of cycles decode is idle
system.cpu.decode.BlockedCycles                612221                       # Number of cycles decode is blocked
system.cpu.decode.RunCycles                   1349798                       # Number of cycles decode is running
system.cpu.decode.UnblockCycles                157589                       # Number of cycles decode is unblocking
system.cpu.decode.SquashCycles                 117025                       # Number of cycles decode is squashing
system.cpu.decode.DecodedInsts               11300555                       # Number of instructions handled by decode
system.cpu.rename.SquashCycles                 117025                       # Number of cycles rename is squashing
system.cpu.rename.IdleCycles                   519652                       # Number of cycles rename is idle
system.cpu.rename.BlockCycles                  558106                       # Number of cycles rename is blocking
system.cpu.rename.serializeStallCycles           1959                       # count of cycles rename stalled for serializing inst
system.cpu.rename.RunCycles                   1365421                       # Number of cycles rename is running
system.cpu.rename.UnblockCycles                 95519                       # Number of cycles rename is unblocking
system.cpu.rename.RenamedInsts               10608769                       # Number of instructions processed by rename
system.cpu.rename.ROBFullEvents                  2373                       # Number of times rename has blocked due to ROB full
system.cpu.rename.IQFullEvents                   8292                       # Number of times rename has blocked due to IQ full
system.cpu.rename.LQFullEvents                    260                       # Number of times rename has blocked due to LQ full
system.cpu.rename.SQFullEvents                  39391                       # Number of times rename has blocked due to SQ full
system.cpu.rename.RenamedOperands            13445047                       # Number of destination operands rename has renamed
system.cpu.rename.RenameLookups              25286429                       # Number of register rename lookups that rename has made
system.cpu.rename.int_rename_lookups         15510187                       # Number of integer rename lookups
system.cpu.rename.fp_rename_lookups             59018                       # Number of floating rename lookups
system.cpu.rename.CommittedMaps               6107197                       # Number of HB maps that are committed
system.cpu.rename.UndoneMaps                  7337850                       # Number of HB maps that are undone due to squashing
system.cpu.rename.serializingInsts                 90                       # count of serializing insts renamed
system.cpu.rename.tempSerializingInsts             59                       # count of temporary serializing insts renamed
system.cpu.rename.skidInsts                    414490                       # count of insts added to the skid buffer
system.cpu.memDep0.insertedLoads               705636                       # Number of loads inserted to the mem dependence unit.
system.cpu.memDep0.insertedStores              571483                       # Number of stores inserted to the mem dependence unit.
system.cpu.memDep0.conflictingLoads             80952                       # Number of conflicting loads.
system.cpu.memDep0.conflictingStores            52748                       # Number of conflicting stores.
system.cpu.iq.iqInstsAdded                    9196399                       # Number of instructions added to the IQ (excludes non-spec)
system.cpu.iq.iqNonSpecInstsAdded                  74                       # Number of non-speculative instructions added to the IQ
system.cpu.iq.iqInstsIssued                   7711748                       # Number of instructions issued
system.cpu.iq.iqSquashedInstsIssued            238607                       # Number of squashed instructions issued
system.cpu.iq.iqSquashedInstsExamined         4315465                       # Number of squashed instructions iterated over during squash; mainly for profiling
system.cpu.iq.iqSquashedOperandsExamined      5334274                       # Number of squashed operands that are examined and possibly removed from graph
system.cpu.iq.iqSquashedNonSpecRemoved             47                       # Number of squashed non-spec instructions that were removed
system.cpu.iq.issued_per_cycle::samples       2657682                       # Number of insts issued each cycle
system.cpu.iq.issued_per_cycle::mean         2.901682                       # Number of insts issued each cycle
system.cpu.iq.issued_per_cycle::stdev        2.881907                       # Number of insts issued each cycle
system.cpu.iq.issued_per_cycle::underflows            0      0.00%      0.00% # Number of insts issued each cycle
system.cpu.iq.issued_per_cycle::0             1131614     42.58%     42.58% # Number of insts issued each cycle
system.cpu.iq.issued_per_cycle::1               71746      2.70%     45.28% # Number of insts issued each cycle
system.cpu.iq.issued_per_cycle::2              118340      4.45%     49.73% # Number of insts issued each cycle
system.cpu.iq.issued_per_cycle::3              144710      5.44%     55.18% # Number of insts issued each cycle
system.cpu.iq.issued_per_cycle::4              248811      9.36%     64.54% # Number of insts issued each cycle
system.cpu.iq.issued_per_cycle::5              137424      5.17%     69.71% # Number of insts issued each cycle
system.cpu.iq.issued_per_cycle::6              482846     18.17%     87.88% # Number of insts issued each cycle
system.cpu.iq.issued_per_cycle::7              187776      7.07%     94.94% # Number of insts issued each cycle
system.cpu.iq.issued_per_cycle::8              134415      5.06%    100.00% # Number of insts issued each cycle
system.cpu.iq.issued_per_cycle::overflows            0      0.00%    100.00% # Number of insts issued each cycle
system.cpu.iq.issued_per_cycle::min_value            0                       # Number of insts issued each cycle
system.cpu.iq.issued_per_cycle::max_value            8                       # Number of insts issued each cycle
system.cpu.iq.issued_per_cycle::total         2657682                       # Number of insts issued each cycle
system.cpu.iq.fu_full::No_OpClass                   0      0.00%      0.00% # attempts to use FU when none available
system.cpu.iq.fu_full::IntAlu                  473099     99.74%     99.74% # attempts to use FU when none available
system.cpu.iq.fu_full::IntMult                      0      0.00%     99.74% # attempts to use FU when none available
system.cpu.iq.fu_full::IntDiv                       0      0.00%     99.74% # attempts to use FU when none available
system.cpu.iq.fu_full::FloatAdd                     0      0.00%     99.74% # attempts to use FU when none available
system.cpu.iq.fu_full::FloatCmp                     0      0.00%     99.74% # attempts to use FU when none available
system.cpu.iq.fu_full::FloatCvt                     0      0.00%     99.74% # attempts to use FU when none available
system.cpu.iq.fu_full::FloatMult                    0      0.00%     99.74% # attempts to use FU when none available
system.cpu.iq.fu_full::FloatMultAcc                 0      0.00%     99.74% # attempts to use FU when none available
system.cpu.iq.fu_full::FloatDiv                     0      0.00%     99.74% # attempts to use FU when none available
system.cpu.iq.fu_full::FloatMisc                    0      0.00%     99.74% # attempts to use FU when none available
system.cpu.iq.fu_full::FloatSqrt                    0      0.00%     99.74% # attempts to use FU when none available
system.cpu.iq.fu_full::SimdAdd                      1      0.00%     99.74% # attempts to use FU when none available
system.cpu.iq.fu_full::SimdAddAcc                   0      0.00%     99.74% # attempts to use FU when none available
system.cpu.iq.fu_full::SimdAlu                     16      0.00%     99.74% # attempts to use FU when none available
system.cpu.iq.fu_full::SimdCmp                      0      0.00%     99.74% # attempts to use FU when none available
system.cpu.iq.fu_full::SimdCvt                     11      0.00%     99.74% # attempts to use FU when none available
system.cpu.iq.fu_full::SimdMisc                     2      0.00%     99.74% # attempts to use FU when none available
system.cpu.iq.fu_full::SimdMult                     0      0.00%     99.74% # attempts to use FU when none available
system.cpu.iq.fu_full::SimdMultAcc                  0      0.00%     99.74% # attempts to use FU when none available
system.cpu.iq.fu_full::SimdShift                    1      0.00%     99.74% # attempts to use FU when none available
system.cpu.iq.fu_full::SimdShiftAcc                 0      0.00%     99.74% # attempts to use FU when none available
system.cpu.iq.fu_full::SimdSqrt                     0      0.00%     99.74% # attempts to use FU when none available
system.cpu.iq.fu_full::SimdFloatAdd                 0      0.00%     99.74% # attempts to use FU when none available
system.cpu.iq.fu_full::SimdFloatAlu                 0      0.00%     99.74% # attempts to use FU when none available
system.cpu.iq.fu_full::SimdFloatCmp                 0      0.00%     99.74% # attempts to use FU when none available
system.cpu.iq.fu_full::SimdFloatCvt                 0      0.00%     99.74% # attempts to use FU when none available
system.cpu.iq.fu_full::SimdFloatDiv                 0      0.00%     99.74% # attempts to use FU when none available
system.cpu.iq.fu_full::SimdFloatMisc                0      0.00%     99.74% # attempts to use FU when none available
system.cpu.iq.fu_full::SimdFloatMult                0      0.00%     99.74% # attempts to use FU when none available
system.cpu.iq.fu_full::SimdFloatMultAcc             0      0.00%     99.74% # attempts to use FU when none available
system.cpu.iq.fu_full::SimdFloatSqrt                0      0.00%     99.74% # attempts to use FU when none available
system.cpu.iq.fu_full::SimdAes                      0      0.00%     99.74% # attempts to use FU when none available
system.cpu.iq.fu_full::SimdAesMix                   0      0.00%     99.74% # attempts to use FU when none available
system.cpu.iq.fu_full::SimdSha1Hash                 0      0.00%     99.74% # attempts to use FU when none available
system.cpu.iq.fu_full::SimdSha1Hash2                0      0.00%     99.74% # attempts to use FU when none available
system.cpu.iq.fu_full::SimdSha256Hash               0      0.00%     99.74% # attempts to use FU when none available
system.cpu.iq.fu_full::SimdSha256Hash2              0      0.00%     99.74% # attempts to use FU when none available
system.cpu.iq.fu_full::SimdShaSigma2                0      0.00%     99.74% # attempts to use FU when none available
system.cpu.iq.fu_full::SimdShaSigma3                0      0.00%     99.74% # attempts to use FU when none available
system.cpu.iq.fu_full::MemRead                    617      0.13%     99.87% # attempts to use FU when none available
system.cpu.iq.fu_full::MemWrite                   426      0.09%     99.96% # attempts to use FU when none available
system.cpu.iq.fu_full::FloatMemRead               143      0.03%     99.99% # attempts to use FU when none available
system.cpu.iq.fu_full::FloatMemWrite               37      0.01%    100.00% # attempts to use FU when none available
system.cpu.iq.fu_full::IprAccess                    0      0.00%    100.00% # attempts to use FU when none available
system.cpu.iq.fu_full::InstPrefetch                 0      0.00%    100.00% # attempts to use FU when none available
system.cpu.iq.FU_type_0::No_OpClass             49397      0.64%      0.64% # Type of FU issued
system.cpu.iq.FU_type_0::IntAlu               6637265     86.07%     86.71% # Type of FU issued
system.cpu.iq.FU_type_0::IntMult                   25      0.00%     86.71% # Type of FU issued
system.cpu.iq.FU_type_0::IntDiv                  1147      0.01%     86.72% # Type of FU issued
system.cpu.iq.FU_type_0::FloatAdd                 197      0.00%     86.73% # Type of FU issued
system.cpu.iq.FU_type_0::FloatCmp                   0      0.00%     86.73% # Type of FU issued
system.cpu.iq.FU_type_0::FloatCvt                   0      0.00%     86.73% # Type of FU issued
system.cpu.iq.FU_type_0::FloatMult                  0      0.00%     86.73% # Type of FU issued
system.cpu.iq.FU_type_0::FloatMultAcc               0      0.00%     86.73% # Type of FU issued
system.cpu.iq.FU_type_0::FloatDiv                   0      0.00%     86.73% # Type of FU issued
system.cpu.iq.FU_type_0::FloatMisc                  0      0.00%     86.73% # Type of FU issued
system.cpu.iq.FU_type_0::FloatSqrt                  0      0.00%     86.73% # Type of FU issued
system.cpu.iq.FU_type_0::SimdAdd                  403      0.01%     86.73% # Type of FU issued
system.cpu.iq.FU_type_0::SimdAddAcc                 0      0.00%     86.73% # Type of FU issued
system.cpu.iq.FU_type_0::SimdAlu                  796      0.01%     86.74% # Type of FU issued
system.cpu.iq.FU_type_0::SimdCmp                    6      0.00%     86.74% # Type of FU issued
system.cpu.iq.FU_type_0::SimdCvt                  985      0.01%     86.75% # Type of FU issued
system.cpu.iq.FU_type_0::SimdMisc                 611      0.01%     86.76% # Type of FU issued
system.cpu.iq.FU_type_0::SimdMult                   0      0.00%     86.76% # Type of FU issued
system.cpu.iq.FU_type_0::SimdMultAcc                0      0.00%     86.76% # Type of FU issued
system.cpu.iq.FU_type_0::SimdShift                225      0.00%     86.76% # Type of FU issued
system.cpu.iq.FU_type_0::SimdShiftAcc               0      0.00%     86.76% # Type of FU issued
system.cpu.iq.FU_type_0::SimdSqrt                   0      0.00%     86.76% # Type of FU issued
system.cpu.iq.FU_type_0::SimdFloatAdd               0      0.00%     86.76% # Type of FU issued
system.cpu.iq.FU_type_0::SimdFloatAlu               0      0.00%     86.76% # Type of FU issued
system.cpu.iq.FU_type_0::SimdFloatCmp               0      0.00%     86.76% # Type of FU issued
system.cpu.iq.FU_type_0::SimdFloatCvt               0      0.00%     86.76% # Type of FU issued
system.cpu.iq.FU_type_0::SimdFloatDiv               0      0.00%     86.76% # Type of FU issued
system.cpu.iq.FU_type_0::SimdFloatMisc              0      0.00%     86.76% # Type of FU issued
system.cpu.iq.FU_type_0::SimdFloatMult              0      0.00%     86.76% # Type of FU issued
system.cpu.iq.FU_type_0::SimdFloatMultAcc            0      0.00%     86.76% # Type of FU issued
system.cpu.iq.FU_type_0::SimdFloatSqrt              0      0.00%     86.76% # Type of FU issued
system.cpu.iq.FU_type_0::SimdAes                    0      0.00%     86.76% # Type of FU issued
system.cpu.iq.FU_type_0::SimdAesMix                 0      0.00%     86.76% # Type of FU issued
system.cpu.iq.FU_type_0::SimdSha1Hash               0      0.00%     86.76% # Type of FU issued
system.cpu.iq.FU_type_0::SimdSha1Hash2              0      0.00%     86.76% # Type of FU issued
system.cpu.iq.FU_type_0::SimdSha256Hash             0      0.00%     86.76% # Type of FU issued
system.cpu.iq.FU_type_0::SimdSha256Hash2            0      0.00%     86.76% # Type of FU issued
system.cpu.iq.FU_type_0::SimdShaSigma2              0      0.00%     86.76% # Type of FU issued
system.cpu.iq.FU_type_0::SimdShaSigma3              0      0.00%     86.76% # Type of FU issued
system.cpu.iq.FU_type_0::MemRead               542774      7.04%     93.80% # Type of FU issued
system.cpu.iq.FU_type_0::MemWrite              390632      5.07%     98.87% # Type of FU issued
system.cpu.iq.FU_type_0::FloatMemRead           45432      0.59%     99.46% # Type of FU issued
system.cpu.iq.FU_type_0::FloatMemWrite          41853      0.54%    100.00% # Type of FU issued
system.cpu.iq.FU_type_0::IprAccess                  0      0.00%    100.00% # Type of FU issued
system.cpu.iq.FU_type_0::InstPrefetch               0      0.00%    100.00% # Type of FU issued
system.cpu.iq.FU_type_0::total                7711748                       # Type of FU issued
system.cpu.iq.rate                           2.863699                       # Inst issue rate
system.cpu.iq.fu_busy_cnt                      474353                       # FU busy when requested
system.cpu.iq.fu_busy_rate                   0.061510                       # FU busy rate (busy events/executed inst)
system.cpu.iq.int_inst_queue_reads           18612698                       # Number of integer instruction queue reads
system.cpu.iq.int_inst_queue_writes          13401998                       # Number of integer instruction queue writes
system.cpu.iq.int_inst_queue_wakeup_accesses      7350604                       # Number of integer instruction queue wakeup accesses
system.cpu.iq.fp_inst_queue_reads              181440                       # Number of floating instruction queue reads
system.cpu.iq.fp_inst_queue_writes             110030                       # Number of floating instruction queue writes
system.cpu.iq.fp_inst_queue_wakeup_accesses        87144                       # Number of floating instruction queue wakeup accesses
system.cpu.iq.vec_inst_queue_reads                  0                       # Number of vector instruction queue reads
system.cpu.iq.vec_inst_queue_writes                 0                       # Number of vector instruction queue writes
system.cpu.iq.vec_inst_queue_wakeup_accesses            0                       # Number of vector instruction queue wakeup accesses
system.cpu.iq.int_alu_accesses                8045914                       # Number of integer alu accesses
system.cpu.iq.fp_alu_accesses                   90790                       # Number of floating point alu accesses
system.cpu.iq.vec_alu_accesses                      0                       # Number of vector alu accesses
system.cpu.iew.lsq.thread0.forwLoads            29492                       # Number of loads that had data forwarded from stores
system.cpu.iew.lsq.thread0.invAddrLoads             0                       # Number of loads ignored due to an invalid address
system.cpu.iew.lsq.thread0.squashedLoads       286246                       # Number of loads squashed
system.cpu.iew.lsq.thread0.ignoredResponses          137                       # Number of memory responses ignored because the instruction is squashed
system.cpu.iew.lsq.thread0.memOrderViolation           94                       # Number of memory ordering violations
system.cpu.iew.lsq.thread0.squashedStores       262946                       # Number of stores squashed
system.cpu.iew.lsq.thread0.invAddrSwpfs             0                       # Number of software prefetches ignored due to an invalid address
system.cpu.iew.lsq.thread0.blockedLoads             0                       # Number of blocked loads due to partial load-store forwarding
system.cpu.iew.lsq.thread0.rescheduledLoads            9                       # Number of loads that were rescheduled
system.cpu.iew.lsq.thread0.cacheBlocked           204                       # Number of times an access to memory failed due to the cache being blocked
system.cpu.iew.iewIdleCycles                        0                       # Number of cycles IEW is idle
system.cpu.iew.iewSquashCycles                 117025                       # Number of cycles IEW is squashing
system.cpu.iew.iewBlockCycles                  526598                       # Number of cycles IEW is blocking
system.cpu.iew.iewUnblockCycles                  3665                       # Number of cycles IEW is unblocking
system.cpu.iew.iewDispatchedInsts             9196473                       # Number of instructions dispatched to IQ
system.cpu.iew.iewDispSquashedInsts              6573                       # Number of squashed instructions skipped by dispatch
system.cpu.iew.iewDispLoadInsts                705636                       # Number of dispatched load instructions
system.cpu.iew.iewDispStoreInsts               571483                       # Number of dispatched store instructions
system.cpu.iew.iewDispNonSpecInsts                 57                       # Number of dispatched non-speculative instructions
system.cpu.iew.iewIQFullEvents                    643                       # Number of times the IQ has become full, causing a stall
system.cpu.iew.iewLSQFullEvents                  2774                       # Number of times the LSQ has become full, causing a stall
system.cpu.iew.memOrderViolationEvents             94                       # Number of memory order violations
system.cpu.iew.predictedTakenIncorrect          45727                       # Number of branches that were predicted taken incorrectly
system.cpu.iew.predictedNotTakenIncorrect        86816                       # Number of branches that were predicted not taken incorrectly
system.cpu.iew.branchMispredicts               132543                       # Number of branch mispredicts detected at execute
system.cpu.iew.iewExecutedInsts               7524071                       # Number of executed instructions
system.cpu.iew.iewExecLoadInsts                563413                       # Number of load instructions executed
system.cpu.iew.iewExecSquashedInsts            187677                       # Number of squashed instructions skipped in execute
system.cpu.iew.exec_swp                             0                       # number of swp insts executed
system.cpu.iew.exec_nop                             0                       # number of nop insts executed
system.cpu.iew.exec_refs                       959182                       # number of memory reference insts executed
system.cpu.iew.exec_branches                   776130                       # Number of branches executed
system.cpu.iew.exec_stores                     395769                       # Number of stores executed
system.cpu.iew.exec_rate                     2.794007                       # Inst execution rate
system.cpu.iew.wb_sent                        7488784                       # cumulative count of insts sent to commit
system.cpu.iew.wb_count                       7437748                       # cumulative count of insts written-back
system.cpu.iew.wb_producers                   5422504                       # num instructions producing a value
system.cpu.iew.wb_consumers                   7953931                       # num instructions consuming a value
system.cpu.iew.wb_rate                       2.761952                       # insts written-back per cycle
system.cpu.iew.wb_fanout                     0.681739                       # average fanout of values written-back
system.cpu.commit.commitSquashedInsts         4315528                       # The number of squashed insts skipped by commit
system.cpu.commit.commitNonSpecStalls              27                       # The number of times commit has been forced to stall to communicate backwards
system.cpu.commit.branchMispredicts            116959                       # The number of times a branch was mispredicted
system.cpu.commit.committed_per_cycle::samples      2045562                       # Number of insts commited each cycle
system.cpu.commit.committed_per_cycle::mean     2.386145                       # Number of insts commited each cycle
system.cpu.commit.committed_per_cycle::stdev     2.951418                       # Number of insts commited each cycle
system.cpu.commit.committed_per_cycle::underflows            0      0.00%      0.00% # Number of insts commited each cycle
system.cpu.commit.committed_per_cycle::0       895535     43.78%     43.78% # Number of insts commited each cycle
system.cpu.commit.committed_per_cycle::1       256200     12.52%     56.30% # Number of insts commited each cycle
system.cpu.commit.committed_per_cycle::2       182123      8.90%     65.21% # Number of insts commited each cycle
system.cpu.commit.committed_per_cycle::3       147147      7.19%     72.40% # Number of insts commited each cycle
system.cpu.commit.committed_per_cycle::4        85170      4.16%     76.56% # Number of insts commited each cycle
system.cpu.commit.committed_per_cycle::5        56283      2.75%     79.32% # Number of insts commited each cycle
system.cpu.commit.committed_per_cycle::6        62518      3.06%     82.37% # Number of insts commited each cycle
system.cpu.commit.committed_per_cycle::7        62771      3.07%     85.44% # Number of insts commited each cycle
system.cpu.commit.committed_per_cycle::8       297815     14.56%    100.00% # Number of insts commited each cycle
system.cpu.commit.committed_per_cycle::overflows            0      0.00%    100.00% # Number of insts commited each cycle
system.cpu.commit.committed_per_cycle::min_value            0                       # Number of insts commited each cycle
system.cpu.commit.committed_per_cycle::max_value            8                       # Number of insts commited each cycle
system.cpu.commit.committed_per_cycle::total      2045562                       # Number of insts commited each cycle
system.cpu.commit.committedInsts              2992979                       # Number of instructions committed
system.cpu.commit.committedOps                4881007                       # Number of ops (including micro ops) committed
system.cpu.commit.swp_count                         0                       # Number of s/w prefetches committed
system.cpu.commit.refs                         727927                       # Number of memory references committed
system.cpu.commit.loads                        419390                       # Number of loads committed
system.cpu.commit.membars                           0                       # Number of memory barriers committed
system.cpu.commit.branches                     542904                       # Number of branches committed
system.cpu.commit.vec_insts                         0                       # Number of committed Vector instructions.
system.cpu.commit.fp_insts                      84924                       # Number of committed floating point instructions.
system.cpu.commit.int_insts                   4862764                       # Number of committed integer instructions.
system.cpu.commit.function_calls                 8777                       # Number of function calls committed.
system.cpu.commit.op_class_0::No_OpClass        16511      0.34%      0.34% # Class of committed instruction
system.cpu.commit.op_class_0::IntAlu          4133516     84.69%     85.02% # Class of committed instruction
system.cpu.commit.op_class_0::IntMult              11      0.00%     85.02% # Class of committed instruction
system.cpu.commit.op_class_0::IntDiv             1083      0.02%     85.05% # Class of committed instruction
system.cpu.commit.op_class_0::FloatAdd             18      0.00%     85.05% # Class of committed instruction
system.cpu.commit.op_class_0::FloatCmp              0      0.00%     85.05% # Class of committed instruction
system.cpu.commit.op_class_0::FloatCvt              0      0.00%     85.05% # Class of committed instruction
system.cpu.commit.op_class_0::FloatMult             0      0.00%     85.05% # Class of committed instruction
system.cpu.commit.op_class_0::FloatMultAcc            0      0.00%     85.05% # Class of committed instruction
system.cpu.commit.op_class_0::FloatDiv              0      0.00%     85.05% # Class of committed instruction
system.cpu.commit.op_class_0::FloatMisc             0      0.00%     85.05% # Class of committed instruction
system.cpu.commit.op_class_0::FloatSqrt             0      0.00%     85.05% # Class of committed instruction
system.cpu.commit.op_class_0::SimdAdd             284      0.01%     85.05% # Class of committed instruction
system.cpu.commit.op_class_0::SimdAddAcc            0      0.00%     85.05% # Class of committed instruction
system.cpu.commit.op_class_0::SimdAlu             403      0.01%     85.06% # Class of committed instruction
system.cpu.commit.op_class_0::SimdCmp               6      0.00%     85.06% # Class of committed instruction
system.cpu.commit.op_class_0::SimdCvt             664      0.01%     85.07% # Class of committed instruction
system.cpu.commit.op_class_0::SimdMisc            482      0.01%     85.08% # Class of committed instruction
system.cpu.commit.op_class_0::SimdMult              0      0.00%     85.08% # Class of committed instruction
system.cpu.commit.op_class_0::SimdMultAcc            0      0.00%     85.08% # Class of committed instruction
system.cpu.commit.op_class_0::SimdShift           102      0.00%     85.09% # Class of committed instruction
system.cpu.commit.op_class_0::SimdShiftAcc            0      0.00%     85.09% # Class of committed instruction
system.cpu.commit.op_class_0::SimdSqrt              0      0.00%     85.09% # Class of committed instruction
system.cpu.commit.op_class_0::SimdFloatAdd            0      0.00%     85.09% # Class of committed instruction
system.cpu.commit.op_class_0::SimdFloatAlu            0      0.00%     85.09% # Class of committed instruction
system.cpu.commit.op_class_0::SimdFloatCmp            0      0.00%     85.09% # Class of committed instruction
system.cpu.commit.op_class_0::SimdFloatCvt            0      0.00%     85.09% # Class of committed instruction
system.cpu.commit.op_class_0::SimdFloatDiv            0      0.00%     85.09% # Class of committed instruction
system.cpu.commit.op_class_0::SimdFloatMisc            0      0.00%     85.09% # Class of committed instruction
system.cpu.commit.op_class_0::SimdFloatMult            0      0.00%     85.09% # Class of committed instruction
system.cpu.commit.op_class_0::SimdFloatMultAcc            0      0.00%     85.09% # Class of committed instruction
system.cpu.commit.op_class_0::SimdFloatSqrt            0      0.00%     85.09% # Class of committed instruction
system.cpu.commit.op_class_0::SimdAes               0      0.00%     85.09% # Class of committed instruction
system.cpu.commit.op_class_0::SimdAesMix            0      0.00%     85.09% # Class of committed instruction
system.cpu.commit.op_class_0::SimdSha1Hash            0      0.00%     85.09% # Class of committed instruction
system.cpu.commit.op_class_0::SimdSha1Hash2            0      0.00%     85.09% # Class of committed instruction
system.cpu.commit.op_class_0::SimdSha256Hash            0      0.00%     85.09% # Class of committed instruction
system.cpu.commit.op_class_0::SimdSha256Hash2            0      0.00%     85.09% # Class of committed instruction
system.cpu.commit.op_class_0::SimdShaSigma2            0      0.00%     85.09% # Class of committed instruction
system.cpu.commit.op_class_0::SimdShaSigma3            0      0.00%     85.09% # Class of committed instruction
system.cpu.commit.op_class_0::MemRead          377768      7.74%     92.83% # Class of committed instruction
system.cpu.commit.op_class_0::MemWrite         267241      5.48%     98.30% # Class of committed instruction
system.cpu.commit.op_class_0::FloatMemRead        41622      0.85%     99.15% # Class of committed instruction
system.cpu.commit.op_class_0::FloatMemWrite        41296      0.85%    100.00% # Class of committed instruction
system.cpu.commit.op_class_0::IprAccess             0      0.00%    100.00% # Class of committed instruction
system.cpu.commit.op_class_0::InstPrefetch            0      0.00%    100.00% # Class of committed instruction
system.cpu.commit.op_class_0::total           4881007                       # Class of committed instruction
system.cpu.commit.bw_lim_events                297815                       # number cycles where commit BW limit reached
system.cpu.rob.rob_reads                     10944282                       # The number of ROB reads
system.cpu.rob.rob_writes                    19013217                       # The number of ROB writes
system.cpu.timesIdled                             497                       # Number of times that the entire CPU went into an idle state and unscheduled itself
system.cpu.idleCycles                           35250                       # Total number of cycles that the CPU has spent unscheduled due to idling
system.cpu.committedInsts                     2992979                       # Number of Instructions Simulated
system.cpu.committedOps                       4881007                       # Number of Ops (including micro ops) Simulated
system.cpu.cpi                               0.899750                       # CPI: Cycles Per Instruction
system.cpu.cpi_total                         0.899750                       # CPI: Total CPI of All Threads
system.cpu.ipc                               1.111420                       # IPC: Instructions Per Cycle
system.cpu.ipc_total                         1.111420                       # IPC: Total IPC of All Threads
system.cpu.int_regfile_reads                 10237980                       # number of integer regfile reads
system.cpu.int_regfile_writes                 6226434                       # number of integer regfile writes
system.cpu.fp_regfile_reads                     48361                       # number of floating regfile reads
system.cpu.fp_regfile_writes                    46096                       # number of floating regfile writes
system.cpu.cc_regfile_reads                   3555869                       # number of cc regfile reads
system.cpu.cc_regfile_writes                  3230380                       # number of cc regfile writes
system.cpu.misc_regfile_reads                 2650649                       # number of misc regfile reads
system.cpu.dcache.tags.pwrStateResidencyTicks::UNDEFINED   2692931000                       # Cumulative time (in ticks) in various power states
system.cpu.dcache.tags.tagsinuse           934.252237                       # Cycle average of tags in use
system.cpu.dcache.tags.total_refs              836522                       # Total number of references to valid blocks.
system.cpu.dcache.tags.sampled_refs              3178                       # Sample count of references to valid blocks.
system.cpu.dcache.tags.avg_refs            263.222782                       # Average number of references to valid blocks.
system.cpu.dcache.tags.warmup_cycle            227000                       # Cycle when the warmup percentage was hit.
system.cpu.dcache.tags.occ_blocks::.cpu.data   934.252237                       # Average occupied blocks per requestor
system.cpu.dcache.tags.occ_percent::.cpu.data     0.912356                       # Average percentage of cache occupancy
system.cpu.dcache.tags.occ_percent::total     0.912356                       # Average percentage of cache occupancy
system.cpu.dcache.tags.occ_task_id_blocks::1024          976                       # Occupied blocks per task id
system.cpu.dcache.tags.age_task_id_blocks_1024::0           71                       # Occupied blocks per task id
system.cpu.dcache.tags.age_task_id_blocks_1024::1            7                       # Occupied blocks per task id
system.cpu.dcache.tags.age_task_id_blocks_1024::2          294                       # Occupied blocks per task id
system.cpu.dcache.tags.age_task_id_blocks_1024::3          604                       # Occupied blocks per task id
system.cpu.dcache.tags.occ_task_id_percent::1024     0.953125                       # Percentage of cache occupancy per task id
system.cpu.dcache.tags.tag_accesses           1686944                       # Number of tag accesses
system.cpu.dcache.tags.data_accesses          1686944                       # Number of data accesses
system.cpu.dcache.pwrStateResidencyTicks::UNDEFINED   2692931000                       # Cumulative time (in ticks) in various power states
system.cpu.dcache.ReadReq_hits::.cpu.data       526060                       # number of ReadReq hits
system.cpu.dcache.ReadReq_hits::total          526060                       # number of ReadReq hits
system.cpu.dcache.WriteReq_hits::.cpu.data       307284                       # number of WriteReq hits
system.cpu.dcache.WriteReq_hits::total         307284                       # number of WriteReq hits
system.cpu.dcache.demand_hits::.cpu.data       833344                       # number of demand (read+write) hits
system.cpu.dcache.demand_hits::total           833344                       # number of demand (read+write) hits
system.cpu.dcache.overall_hits::.cpu.data       833344                       # number of overall hits
system.cpu.dcache.overall_hits::total          833344                       # number of overall hits
system.cpu.dcache.ReadReq_misses::.cpu.data         7286                       # number of ReadReq misses
system.cpu.dcache.ReadReq_misses::total          7286                       # number of ReadReq misses
system.cpu.dcache.WriteReq_misses::.cpu.data         1253                       # number of WriteReq misses
system.cpu.dcache.WriteReq_misses::total         1253                       # number of WriteReq misses
system.cpu.dcache.demand_misses::.cpu.data         8539                       # number of demand (read+write) misses
system.cpu.dcache.demand_misses::total           8539                       # number of demand (read+write) misses
system.cpu.dcache.overall_misses::.cpu.data         8539                       # number of overall misses
system.cpu.dcache.overall_misses::total          8539                       # number of overall misses
system.cpu.dcache.ReadReq_miss_latency::.cpu.data    599481000                       # number of ReadReq miss cycles
system.cpu.dcache.ReadReq_miss_latency::total    599481000                       # number of ReadReq miss cycles
system.cpu.dcache.WriteReq_miss_latency::.cpu.data    120917000                       # number of WriteReq miss cycles
system.cpu.dcache.WriteReq_miss_latency::total    120917000                       # number of WriteReq miss cycles
system.cpu.dcache.demand_miss_latency::.cpu.data    720398000                       # number of demand (read+write) miss cycles
system.cpu.dcache.demand_miss_latency::total    720398000                       # number of demand (read+write) miss cycles
system.cpu.dcache.overall_miss_latency::.cpu.data    720398000                       # number of overall miss cycles
system.cpu.dcache.overall_miss_latency::total    720398000                       # number of overall miss cycles
system.cpu.dcache.ReadReq_accesses::.cpu.data       533346                       # number of ReadReq accesses(hits+misses)
system.cpu.dcache.ReadReq_accesses::total       533346                       # number of ReadReq accesses(hits+misses)
[...]
system.l2.WritebackClean_accesses::total          103                       # number of WritebackClean accesses(hits+misses)
system.l2.ReadExReq_accesses::.cpu.data          1246                       # number of ReadExReq accesses(hits+misses)
system.l2.ReadExReq_accesses::total              1246                       # number of ReadExReq accesses(hits+misses)
system.l2.ReadCleanReq_accesses::.cpu.inst          840                       # number of ReadCleanReq accesses(hits+misses)
system.l2.ReadCleanReq_accesses::total            840                       # number of ReadCleanReq accesses(hits+misses)
system.l2.ReadSharedReq_accesses::.cpu.data         1932                       # number of ReadSharedReq accesses(hits+misses)
system.l2.ReadSharedReq_accesses::total          1932                       # number of ReadSharedReq accesses(hits+misses)
system.l2.demand_accesses::.cpu.inst              840                       # number of demand (read+write) accesses
system.l2.demand_accesses::.cpu.data             3178                       # number of demand (read+write) accesses
system.l2.demand_accesses::total                 4018                       # number of demand (read+write) accesses
system.l2.overall_accesses::.cpu.inst             840                       # number of overall (read+write) accesses
system.l2.overall_accesses::.cpu.data            3178                       # number of overall (read+write) accesses
system.l2.overall_accesses::total                4018                       # number of overall (read+write) accesses
system.l2.ReadExReq_miss_rate::.cpu.data     0.743178                       # miss rate for ReadExReq accesses
system.l2.ReadExReq_miss_rate::total         0.743178                       # miss rate for ReadExReq accesses
system.l2.ReadCleanReq_miss_rate::.cpu.inst     0.984524                       # miss rate for ReadCleanReq accesses
system.l2.ReadCleanReq_miss_rate::total      0.984524                       # miss rate for ReadCleanReq accesses
system.l2.ReadSharedReq_miss_rate::.cpu.data     0.819358                       # miss rate for ReadSharedReq accesses
system.l2.ReadSharedReq_miss_rate::total     0.819358                       # miss rate for ReadSharedReq accesses
system.l2.demand_miss_rate::.cpu.inst        0.984524                       # miss rate for demand accesses
system.l2.demand_miss_rate::.cpu.data        0.789490                       # miss rate for demand accesses
system.l2.demand_miss_rate::total            0.830264                       # miss rate for demand accesses
system.l2.overall_miss_rate::.cpu.inst       0.984524                       # miss rate for overall accesses
system.l2.overall_miss_rate::.cpu.data       0.789490                       # miss rate for overall accesses
system.l2.overall_miss_rate::total           0.830264                       # miss rate for overall accesses
system.l2.ReadExReq_avg_miss_latency::.cpu.data 116078.833693                       # average ReadExReq miss latency
system.l2.ReadExReq_avg_miss_latency::total 116078.833693                       # average ReadExReq miss latency
system.l2.ReadCleanReq_avg_miss_latency::.cpu.inst 105894.800484                       # average ReadCleanReq miss latency
system.l2.ReadCleanReq_avg_miss_latency::total 105894.800484                       # average ReadCleanReq miss latency
system.l2.ReadSharedReq_avg_miss_latency::.cpu.data 107030.322173                       # average ReadSharedReq miss latency
system.l2.ReadSharedReq_avg_miss_latency::total 107030.322173                       # average ReadSharedReq miss latency
system.l2.demand_avg_miss_latency::.cpu.inst 105894.800484                       # average overall miss latency
system.l2.demand_avg_miss_latency::.cpu.data 110369.868473                       # average overall miss latency
system.l2.demand_avg_miss_latency::total 109260.491607                       # average overall miss latency
system.l2.overall_avg_miss_latency::.cpu.inst 105894.800484                       # average overall miss latency
system.l2.overall_avg_miss_latency::.cpu.data 110369.868473                       # average overall miss latency
system.l2.overall_avg_miss_latency::total 109260.491607                       # average overall miss latency
system.l2.blocked_cycles::no_mshrs                  0                       # number of cycles access was blocked
system.l2.blocked_cycles::no_targets                0                       # number of cycles access was blocked
system.l2.blocked::no_mshrs                         0                       # number of cycles access was blocked
system.l2.blocked::no_targets                       0                       # number of cycles access was blocked
system.l2.avg_blocked_cycles::no_mshrs            nan                       # average number of cycles each access was blocked
system.l2.avg_blocked_cycles::no_targets          nan                       # average number of cycles each access was blocked
system.l2.ReadExReq_mshr_misses::.cpu.data          926                       # number of ReadExReq MSHR misses
system.l2.ReadExReq_mshr_misses::total            926                       # number of ReadExReq MSHR misses
system.l2.ReadCleanReq_mshr_misses::.cpu.inst          827                       # number of ReadCleanReq MSHR misses
system.l2.ReadCleanReq_mshr_misses::total          827                       # number of ReadCleanReq MSHR misses
system.l2.ReadSharedReq_mshr_misses::.cpu.data         1583                       # number of ReadSharedReq MSHR misses
system.l2.ReadSharedReq_mshr_misses::total         1583                       # number of ReadSharedReq MSHR misses
system.l2.demand_mshr_misses::.cpu.inst           827                       # number of demand (read+write) MSHR misses
system.l2.demand_mshr_misses::.cpu.data          2509                       # number of demand (read+write) MSHR misses
system.l2.demand_mshr_misses::total              3336                       # number of demand (read+write) MSHR misses
system.l2.overall_mshr_misses::.cpu.inst          827                       # number of overall MSHR misses
system.l2.overall_mshr_misses::.cpu.data         2509                       # number of overall MSHR misses
system.l2.overall_mshr_misses::total             3336                       # number of overall MSHR misses
system.l2.ReadExReq_mshr_miss_latency::.cpu.data     88969000                       # number of ReadExReq MSHR miss cycles
system.l2.ReadExReq_mshr_miss_latency::total     88969000                       # number of ReadExReq MSHR miss cycles
system.l2.ReadCleanReq_mshr_miss_latency::.cpu.inst     71035000                       # number of ReadCleanReq MSHR miss cycles
system.l2.ReadCleanReq_mshr_miss_latency::total     71035000                       # number of ReadCleanReq MSHR miss cycles
system.l2.ReadSharedReq_mshr_miss_latency::.cpu.data    137769000                       # number of ReadSharedReq MSHR miss cycles
system.l2.ReadSharedReq_mshr_miss_latency::total    137769000                       # number of ReadSharedReq MSHR miss cycles
system.l2.demand_mshr_miss_latency::.cpu.inst     71035000                       # number of demand (read+write) MSHR miss cycles
system.l2.demand_mshr_miss_latency::.cpu.data    226738000                       # number of demand (read+write) MSHR miss cycles
system.l2.demand_mshr_miss_latency::total    297773000                       # number of demand (read+write) MSHR miss cycles
system.l2.overall_mshr_miss_latency::.cpu.inst     71035000                       # number of overall MSHR miss cycles
system.l2.overall_mshr_miss_latency::.cpu.data    226738000                       # number of overall MSHR miss cycles
system.l2.overall_mshr_miss_latency::total    297773000                       # number of overall MSHR miss cycles
system.l2.ReadExReq_mshr_miss_rate::.cpu.data     0.743178                       # mshr miss rate for ReadExReq accesses
system.l2.ReadExReq_mshr_miss_rate::total     0.743178                       # mshr miss rate for ReadExReq accesses
system.l2.ReadCleanReq_mshr_miss_rate::.cpu.inst     0.984524                       # mshr miss rate for ReadCleanReq accesses
system.l2.ReadCleanReq_mshr_miss_rate::total     0.984524                       # mshr miss rate for ReadCleanReq accesses
system.l2.ReadSharedReq_mshr_miss_rate::.cpu.data     0.819358                       # mshr miss rate for ReadSharedReq accesses
system.l2.ReadSharedReq_mshr_miss_rate::total     0.819358                       # mshr miss rate for ReadSharedReq accesses
system.l2.demand_mshr_miss_rate::.cpu.inst     0.984524                       # mshr miss rate for demand accesses
system.l2.demand_mshr_miss_rate::.cpu.data     0.789490                       # mshr miss rate for demand accesses
system.l2.demand_mshr_miss_rate::total       0.830264                       # mshr miss rate for demand accesses
system.l2.overall_mshr_miss_rate::.cpu.inst     0.984524                       # mshr miss rate for overall accesses
system.l2.overall_mshr_miss_rate::.cpu.data     0.789490                       # mshr miss rate for overall accesses
system.l2.overall_mshr_miss_rate::total      0.830264                       # mshr miss rate for overall accesses
system.l2.ReadExReq_avg_mshr_miss_latency::.cpu.data 96078.833693                       # average ReadExReq mshr miss latency
system.l2.ReadExReq_avg_mshr_miss_latency::total 96078.833693                       # average ReadExReq mshr miss latency
system.l2.ReadCleanReq_avg_mshr_miss_latency::.cpu.inst 85894.800484                       # average ReadCleanReq mshr miss latency
system.l2.ReadCleanReq_avg_mshr_miss_latency::total 85894.800484                       # average ReadCleanReq mshr miss latency
system.l2.ReadSharedReq_avg_mshr_miss_latency::.cpu.data 87030.322173                       # average ReadSharedReq mshr miss latency
system.l2.ReadSharedReq_avg_mshr_miss_latency::total 87030.322173                       # average ReadSharedReq mshr miss latency
system.l2.demand_avg_mshr_miss_latency::.cpu.inst 85894.800484                       # average overall mshr miss latency
system.l2.demand_avg_mshr_miss_latency::.cpu.data 90369.868473                       # average overall mshr miss latency
system.l2.demand_avg_mshr_miss_latency::total 89260.491607                       # average overall mshr miss latency
system.l2.overall_avg_mshr_miss_latency::.cpu.inst 85894.800484                       # average overall mshr miss latency
system.l2.overall_avg_mshr_miss_latency::.cpu.data 90369.868473                       # average overall mshr miss latency
system.l2.overall_avg_mshr_miss_latency::total 89260.491607                       # average overall mshr miss latency
system.l2.replacements                              0                       # number of replacements
system.membus.snoop_filter.tot_requests          3336                       # Total number of requests made to the snoop filter.
system.membus.snoop_filter.hit_single_requests            0                       # Number of requests hitting in the snoop filter with a single holder of the requested data.
system.membus.snoop_filter.hit_multi_requests            0                       # Number of requests hitting in the snoop filter with multiple (>1) holders of the requested data.
system.membus.snoop_filter.tot_snoops               0                       # Total number of snoops made to the snoop filter.
system.membus.snoop_filter.hit_single_snoops            0                       # Number of snoops hitting in the snoop filter with a single holder of the requested data.
system.membus.snoop_filter.hit_multi_snoops            0                       # Number of snoops hitting in the snoop filter with multiple (>1) holders of the requested data.
system.membus.pwrStateResidencyTicks::UNDEFINED   2692931000                       # Cumulative time (in ticks) in various power states
system.membus.trans_dist::ReadResp               2410                       # Transaction distribution
system.membus.trans_dist::ReadExReq               926                       # Transaction distribution
system.membus.trans_dist::ReadExResp              926                       # Transaction distribution
system.membus.trans_dist::ReadSharedReq          2410                       # Transaction distribution
system.membus.pkt_count_system.l2.mem_side::system.mem_ctrls.port         6672                       # Packet count per connected master and slave (bytes)
system.membus.pkt_count_system.l2.mem_side::total         6672                       # Packet count per connected master and slave (bytes)
system.membus.pkt_count::total                   6672                       # Packet count per connected master and slave (bytes)
system.membus.pkt_size_system.l2.mem_side::system.mem_ctrls.port       213504                       # Cumulative packet size per connected master and slave (bytes)
system.membus.pkt_size_system.l2.mem_side::total       213504                       # Cumulative packet size per connected master and slave (bytes)
system.membus.pkt_size::total                  213504                       # Cumulative packet size per connected master and slave (bytes)
system.membus.snoops                                0                       # Total snoops (count)
system.membus.snoopTraffic                          0                       # Total snoop traffic (bytes)
system.membus.snoop_fanout::samples              3336                       # Request fanout histogram
system.membus.snoop_fanout::mean                    0                       # Request fanout histogram
system.membus.snoop_fanout::stdev                   0                       # Request fanout histogram
system.membus.snoop_fanout::underflows              0      0.00%      0.00% # Request fanout histogram
system.membus.snoop_fanout::0                    3336    100.00%    100.00% # Request fanout histogram
system.membus.snoop_fanout::1                       0      0.00%    100.00% # Request fanout histogram
system.membus.snoop_fanout::overflows               0      0.00%    100.00% # Request fanout histogram
system.membus.snoop_fanout::min_value               0                       # Request fanout histogram
system.membus.snoop_fanout::max_value               0                       # Request fanout histogram
system.membus.snoop_fanout::total                3336                       # Request fanout histogram
system.membus.reqLayer2.occupancy             3336000                       # Layer occupancy (ticks)
system.membus.reqLayer2.utilization               0.1                       # Layer utilization (%)
system.membus.respLayer1.occupancy           17736000                       # Layer occupancy (ticks)
system.membus.respLayer1.utilization              0.7                       # Layer utilization (%)
system.tol2bus.snoop_filter.tot_requests         6325                       # Total number of requests made to the snoop filter.
system.tol2bus.snoop_filter.hit_single_requests         2307                       # Number of requests hitting in the snoop filter with a single holder of the requested data.
system.tol2bus.snoop_filter.hit_multi_requests           10                       # Number of requests hitting in the snoop filter with multiple (>1) holders of the requested data.
system.tol2bus.snoop_filter.tot_snoops              0                       # Total number of snoops made to the snoop filter.
system.tol2bus.snoop_filter.hit_single_snoops            0                       # Number of snoops hitting in the snoop filter with a single holder of the requested data.
system.tol2bus.snoop_filter.hit_multi_snoops            0                       # Number of snoops hitting in the snoop filter with multiple (>1) holders of the requested data.
system.tol2bus.pwrStateResidencyTicks::UNDEFINED   2692931000                       # Cumulative time (in ticks) in various power states
system.tol2bus.trans_dist::ReadResp              2772                       # Transaction distribution
system.tol2bus.trans_dist::WritebackDirty         1130                       # Transaction distribution
system.tol2bus.trans_dist::WritebackClean          105                       # Transaction distribution
system.tol2bus.trans_dist::CleanEvict            1072                       # Transaction distribution
system.tol2bus.trans_dist::ReadExReq             1246                       # Transaction distribution
system.tol2bus.trans_dist::ReadExResp            1246                       # Transaction distribution
system.tol2bus.trans_dist::ReadCleanReq           840                       # Transaction distribution
system.tol2bus.trans_dist::ReadSharedReq         1932                       # Transaction distribution
system.tol2bus.pkt_count_system.cpu.icache.mem_side::system.l2.cpu_side         1785                       # Packet count per connected master and slave (bytes)
system.tol2bus.pkt_count_system.cpu.dcache.mem_side::system.l2.cpu_side         8558                       # Packet count per connected master and slave (bytes)
system.tol2bus.pkt_count::total                 10343                       # Packet count per connected master and slave (bytes)
system.tol2bus.pkt_size_system.cpu.icache.mem_side::system.l2.cpu_side        60480                       # Cumulative packet size per connected master and slave (bytes)
system.tol2bus.pkt_size_system.cpu.dcache.mem_side::system.l2.cpu_side       275712                       # Cumulative packet size per connected master and slave (bytes)
system.tol2bus.pkt_size::total                 336192                       # Cumulative packet size per connected master and slave (bytes)
system.tol2bus.snoops                               0                       # Total snoops (count)
system.tol2bus.snoopTraffic                         0                       # Total snoop traffic (bytes)
system.tol2bus.snoop_fanout::samples             4018                       # Request fanout histogram
system.tol2bus.snoop_fanout::mean            0.002489                       # Request fanout histogram
system.tol2bus.snoop_fanout::stdev           0.049832                       # Request fanout histogram
system.tol2bus.snoop_fanout::underflows             0      0.00%      0.00% # Request fanout histogram
system.tol2bus.snoop_fanout::0                   4008     99.75%     99.75% # Request fanout histogram
system.tol2bus.snoop_fanout::1                     10      0.25%    100.00% # Request fanout histogram
system.tol2bus.snoop_fanout::2                      0      0.00%    100.00% # Request fanout histogram
system.tol2bus.snoop_fanout::3                      0      0.00%    100.00% # Request fanout histogram
system.tol2bus.snoop_fanout::4                      0      0.00%    100.00% # Request fanout histogram
system.tol2bus.snoop_fanout::overflows              0      0.00%    100.00% # Request fanout histogram
system.tol2bus.snoop_fanout::min_value              0                       # Request fanout histogram
system.tol2bus.snoop_fanout::max_value              1                       # Request fanout histogram
system.tol2bus.snoop_fanout::total               4018                       # Request fanout histogram
system.tol2bus.reqLayer0.occupancy            8795000                       # Layer occupancy (ticks)
system.tol2bus.reqLayer0.utilization              0.3                       # Layer utilization (%)
system.tol2bus.respLayer0.occupancy           2522997                       # Layer occupancy (ticks)
system.tol2bus.respLayer0.utilization             0.1                       # Layer utilization (%)
system.tol2bus.respLayer1.occupancy           9534000                       # Layer occupancy (ticks)
system.tol2bus.respLayer1.utilization             0.4                       # Layer utilization (%)

---------- End Simulation Statistics   ----------
