
---------- Begin Simulation Statistics ----------
sim_seconds                                  0.002666                       # Number of seconds simulated
sim_ticks                                  2665885000                       # Number of ticks simulated
final_tick                                 2665885000                       # Number of ticks from beginning of simulation (restored from checkpoints and never reset)
sim_freq                                 1000000000000                       # Frequency of simulated ticks
host_inst_rate                                  63188                       # Simulator instruction rate (inst/s)
host_op_rate                                   103049                       # Simulator op (including micro ops) rate (op/s)
host_tick_rate                               56280788                       # Simulator tick rate (ticks/s)
host_mem_usage                                 670484                       # Number of bytes of host memory used
host_seconds                                    47.37                       # Real time elapsed on the host
sim_insts                                     2993062                       # Number of instructions simulated
sim_ops                                       4881169                       # Number of ops (including micro ops) simulated
system.voltage_domain.voltage                       1                       # Voltage in Volts
system.clk_domain.clock                          1000                       # Clock period in ticks
system.mem_ctrls.pwrStateResidencyTicks::UNDEFINED   2665885000                       # Cumulative time (in ticks) in various power states
system.mem_ctrls.bytes_read::.cpu.inst          53248                       # Number of bytes read from this memory
system.mem_ctrls.bytes_read::.cpu.data         160256                       # Number of bytes read from this memory
system.mem_ctrls.bytes_read::total             213504                       # Number of bytes read from this memory
system.mem_ctrls.bytes_inst_read::.cpu.inst        53248                       # Number of instructions bytes read from this memory
system.mem_ctrls.bytes_inst_read::total         53248                       # Number of instructions bytes read from this memory
system.mem_ctrls.num_reads::.cpu.inst             832                       # Number of read requests responded to by this memory
system.mem_ctrls.num_reads::.cpu.data            2504                       # Number of read requests responded to by this memory
system.mem_ctrls.num_reads::total                3336                       # Number of read requests responded to by this memory
system.mem_ctrls.bw_read::.cpu.inst          19973855                       # Total read bandwidth from this memory (bytes/s)
system.mem_ctrls.bw_read::.cpu.data          60113621                       # Total read bandwidth from this memory (bytes/s)
system.mem_ctrls.bw_read::total              80087476                       # Total read bandwidth from this memory (bytes/s)
system.mem_ctrls.bw_inst_read::.cpu.inst     19973855                       # Instruction read bandwidth from this memory (bytes/s)
system.mem_ctrls.bw_inst_read::total         19973855                       # Instruction read bandwidth from this memory (bytes/s)
system.mem_ctrls.bw_total::.cpu.inst         19973855                       # Total bandwidth to/from this memory (bytes/s)
system.mem_ctrls.bw_total::.cpu.data         60113621                       # Total bandwidth to/from this memory (bytes/s)
system.mem_ctrls.bw_total::total             80087476                       # Total bandwidth to/from this memory (bytes/s)
system.mem_ctrls.avgPriority_.cpu.inst::samples       832.00                       # Average QoS priority value for accepted requests
system.mem_ctrls.avgPriority_.cpu.data::samples      2504.00                       # Average QoS priority value for accepted requests
system.mem_ctrls.priorityMinLatency      0.000000018750                       # per QoS priority minimum request to response latency (s)
system.mem_ctrls.priorityMaxLatency      0.000001099750                       # per QoS priority maximum request to response latency (s)
system.mem_ctrls.numReadWriteTurnArounds            0                       # Number of turnarounds from READ to WRITE
system.mem_ctrls.numWriteReadTurnArounds            0                       # Number of turnarounds from WRITE to READ
system.mem_ctrls.numStayReadState                7029                       # Number of times bus staying in READ state
system.mem_ctrls.numStayWriteState                  0                       # Number of times bus staying in WRITE state
system.mem_ctrls.readReqs                        3336                       # Number of read requests accepted
system.mem_ctrls.writeReqs                          0                       # Number of write requests accepted
system.mem_ctrls.readBursts                      3336                       # Number of DRAM read bursts, including those serviced by the write queue
system.mem_ctrls.writeBursts                        0                       # Number of DRAM write bursts, including those merged in the write queue
system.mem_ctrls.bytesReadDRAM                 213504                       # Total number of bytes read from DRAM
system.mem_ctrls.bytesReadWrQ                       0                       # Total number of bytes read from write queue
system.mem_ctrls.bytesWritten                       0                       # Total number of bytes written to DRAM
system.mem_ctrls.bytesReadSys                  213504                       # Total read bytes from the system interface side
system.mem_ctrls.bytesWrittenSys                    0                       # Total written bytes from the system interface side
system.mem_ctrls.servicedByWrQ                      0                       # Number of DRAM read bursts serviced by the write queue
system.mem_ctrls.mergedWrBursts                     0                       # Number of DRAM write bursts merged with an existing one
system.mem_ctrls.neitherReadNorWriteReqs            0                       # Number of requests that are neither read nor write
system.mem_ctrls.perBankRdBursts::0               193                       # Per bank write bursts
system.mem_ctrls.perBankRdBursts::1               271                       # Per bank write bursts
system.mem_ctrls.perBankRdBursts::2               332                       # Per bank write bursts
system.mem_ctrls.perBankRdBursts::3               323                       # Per bank write bursts
system.mem_ctrls.perBankRdBursts::4               260                       # Per bank write bursts
system.mem_ctrls.perBankRdBursts::5               242                       # Per bank write bursts
system.mem_ctrls.perBankRdBursts::6               245                       # Per bank write bursts
system.mem_ctrls.perBankRdBursts::7               168                       # Per bank write bursts
system.mem_ctrls.perBankRdBursts::8               187                       # Per bank write bursts
system.mem_ctrls.perBankRdBursts::9                88                       # Per bank write bursts
system.mem_ctrls.perBankRdBursts::10              174                       # Per bank write bursts
system.mem_ctrls.perBankRdBursts::11              231                       # Per bank write bursts
system.mem_ctrls.perBankRdBursts::12              126                       # Per bank write bursts
system.mem_ctrls.perBankRdBursts::13              134                       # Per bank write bursts
system.mem_ctrls.perBankRdBursts::14              219                       # Per bank write bursts
system.mem_ctrls.perBankRdBursts::15              143                       # Per bank write bursts
system.mem_ctrls.perBankWrBursts::0                 0                       # Per bank write bursts
system.mem_ctrls.perBankWrBursts::1                 0                       # Per bank write bursts
system.mem_ctrls.perBankWrBursts::2                 0                       # Per bank write bursts
system.mem_ctrls.perBankWrBursts::3                 0                       # Per bank write bursts
system.mem_ctrls.perBankWrBursts::4                 0                       # Per bank write bursts
system.mem_ctrls.perBankWrBursts::5                 0                       # Per bank write bursts
system.mem_ctrls.perBankWrBursts::6                 0                       # Per bank write bursts
system.mem_ctrls.perBankWrBursts::7                 0                       # Per bank write bursts
system.mem_ctrls.perBankWrBursts::8                 0                       # Per bank write bursts
system.mem_ctrls.perBankWrBursts::9                 0                       # Per bank write bursts
system.mem_ctrls.perBankWrBursts::10                0                       # Per bank write bursts
system.mem_ctrls.perBankWrBursts::11                0                       # Per bank write bursts
system.mem_ctrls.perBankWrBursts::12                0                       # Per bank write bursts
system.mem_ctrls.perBankWrBursts::13                0                       # Per bank write bursts
system.mem_ctrls.perBankWrBursts::14                0                       # Per bank write bursts
system.mem_ctrls.perBankWrBursts::15                0                       # Per bank write bursts
system.mem_ctrls.numRdRetry                         0                       # Number of times read queue was full causing retry
system.mem_ctrls.numWrRetry                         0                       # Number of times write queue was full causing retry
system.mem_ctrls.totGap                    2665773000                       # Total gap between requests
system.mem_ctrls.readPktSize::0                     0                       # Read request sizes (log2)
system.mem_ctrls.readPktSize::1                     0                       # Read request sizes (log2)
system.mem_ctrls.readPktSize::2                     0                       # Read request sizes (log2)
system.mem_ctrls.readPktSize::3                     0                       # Read request sizes (log2)
system.mem_ctrls.readPktSize::4                     0                       # Read request sizes (log2)
system.mem_ctrls.readPktSize::5                     0                       # Read request sizes (log2)
system.mem_ctrls.readPktSize::6                  3336                       # Read request sizes (log2)
system.mem_ctrls.writePktSize::0                    0                       # Write request sizes (log2)
system.mem_ctrls.writePktSize::1                    0                       # Write request sizes (log2)
system.mem_ctrls.writePktSize::2                    0                       # Write request sizes (log2)
system.mem_ctrls.writePktSize::3                    0                       # Write request sizes (log2)
system.mem_ctrls.writePktSize::4                    0                       # Write request sizes (log2)
system.mem_ctrls.writePktSize::5                    0                       # Write request sizes (log2)
system.mem_ctrls.writePktSize::6                    0                       # Write request sizes (log2)
system.mem_ctrls.rdQLenPdf::0                    2437                       # What read queue length does an incoming req see
system.mem_ctrls.rdQLenPdf::1                     649                       # What read queue length does an incoming req see
system.mem_ctrls.rdQLenPdf::2                     223                       # What read queue length does an incoming req see
system.mem_ctrls.rdQLenPdf::3                      25                       # What read queue length does an incoming req see
system.mem_ctrls.rdQLenPdf::4                       2                       # What read queue length does an incoming req see
system.mem_ctrls.rdQLenPdf::5                       0                       # What read queue length does an incoming req see
system.mem_ctrls.rdQLenPdf::6                       0                       # What read queue length does an incoming req see
system.mem_ctrls.rdQLenPdf::7                       0                       # What read queue length does an incoming req see
system.mem_ctrls.rdQLenPdf::8                       0                       # What read queue length does an incoming req see
system.mem_ctrls.rdQLenPdf::9                       0                       # What read queue length does an incoming req see
system.mem_ctrls.rdQLenPdf::10                      0                       # What read queue length does an incoming req see
system.mem_ctrls.rdQLenPdf::11                      0                       # What read queue length does an incoming req see
system.mem_ctrls.rdQLenPdf::12                      0                       # What read queue length does an incoming req see
system.mem_ctrls.rdQLenPdf::13                      0                       # What read queue length does an incoming req see
system.mem_ctrls.rdQLenPdf::14                      0                       # What read queue length does an incoming req see
system.mem_ctrls.rdQLenPdf::15                      0                       # What read queue length does an incoming req see
system.mem_ctrls.rdQLenPdf::16                      0                       # What read queue length does an incoming req see
system.mem_ctrls.rdQLenPdf::17                      0                       # What read queue length does an incoming req see
system.mem_ctrls.rdQLenPdf::18                      0                       # What read queue length does an incoming req see
system.mem_ctrls.rdQLenPdf::19                      0                       # What read queue length does an incoming req see
system.mem_ctrls.rdQLenPdf::20                      0                       # What read queue length does an incoming req see
system.mem_ctrls.rdQLenPdf::21                      0                       # What read queue length does an incoming req see
system.mem_ctrls.rdQLenPdf::22                      0                       # What read queue length does an incoming req see
system.mem_ctrls.rdQLenPdf::23                      0                       # What read queue length does an incoming req see
system.mem_ctrls.rdQLenPdf::24                      0                       # What read queue length does an incoming req see
system.mem_ctrls.rdQLenPdf::25                      0                       # What read queue length does an incoming req see
system.mem_ctrls.rdQLenPdf::26                      0                       # What read queue length does an incoming req see
system.mem_ctrls.rdQLenPdf::27                      0                       # What read queue length does an incoming req see
system.mem_ctrls.rdQLenPdf::28                      0                       # What read queue length does an incoming req see
system.mem_ctrls.rdQLenPdf::29                      0                       # What read queue length does an incoming req see
system.mem_ctrls.rdQLenPdf::30                      0                       # What read queue length does an incoming req see
system.mem_ctrls.rdQLenPdf::31                      0                       # What read queue length does an incoming req see
system.mem_ctrls.wrQLenPdf::0                       0                       # What write queue length does an incoming req see
system.mem_ctrls.wrQLenPdf::1                       0                       # What write queue length does an incoming req see
system.mem_ctrls.wrQLenPdf::2                       0                       # What write queue length does an incoming req see
system.mem_ctrls.wrQLenPdf::3                       0                       # What write queue length does an incoming req see
system.mem_ctrls.wrQLenPdf::4                       0                       # What write queue length does an incoming req see
system.mem_ctrls.wrQLenPdf::5                       0                       # What write queue length does an incoming req see
system.mem_ctrls.wrQLenPdf::6                       0                       # What write queue length does an incoming req see
system.mem_ctrls.wrQLenPdf::7                       0                       # What write queue length does an incoming req see
system.mem_ctrls.wrQLenPdf::8                       0                       # What write queue length does an incoming req see
system.mem_ctrls.wrQLenPdf::9                       0                       # What write queue length does an incoming req see
system.mem_ctrls.wrQLenPdf::10                      0                       # What write queue length does an incoming req see
system.mem_ctrls.wrQLenPdf::11                      0                       # What write queue length does an incoming req see
system.mem_ctrls.wrQLenPdf::12                      0                       # What write queue length does an incoming req see
system.mem_ctrls.wrQLenPdf::13                      0                       # What write queue length does an incoming req see
system.mem_ctrls.wrQLenPdf::14                      0                       # What write queue length does an incoming req see
system.mem_ctrls.wrQLenPdf::15                      0                       # What write queue length does an incoming req see
system.mem_ctrls.wrQLenPdf::16                      0                       # What write queue length does an incoming req see
system.mem_ctrls.wrQLenPdf::17                      0                       # What write queue length does an incoming req see
system.mem_ctrls.wrQLenPdf::18                      0                       # What write queue length does an incoming req see
system.mem_ctrls.wrQLenPdf::19                      0                       # What write queue length does an incoming req see
system.mem_ctrls.wrQLenPdf::20                      0                       # What write queue length does an incoming req see
system.mem_ctrls.wrQLenPdf::21                      0                       # What write queue length does an incoming req see
system.mem_ctrls.wrQLenPdf::22                      0                       # What write queue length does an incoming req see
system.mem_ctrls.wrQLenPdf::23                      0                       # What write queue length does an incoming req see
system.mem_ctrls.wrQLenPdf::24                      0                       # What write queue length does an incoming req see
system.mem_ctrls.wrQLenPdf::25                      0                       # What write queue length does an incoming req see
system.mem_ctrls.wrQLenPdf::26                      0                       # What write queue length does an incoming req see
system.mem_ctrls.wrQLenPdf::27                      0                       # What write queue length does an incoming req see
system.mem_ctrls.wrQLenPdf::28                      0                       # What write queue length does an incoming req see
system.mem_ctrls.wrQLenPdf::29                      0                       # What write queue length does an incoming req see
system.mem_ctrls.wrQLenPdf::30                      0                       # What write queue length does an incoming req see
system.mem_ctrls.wrQLenPdf::31                      0                       # What write queue length does an incoming req see
system.mem_ctrls.wrQLenPdf::32                      0                       # What write queue length does an incoming req see
system.mem_ctrls.wrQLenPdf::33                      0                       # What write queue length does an incoming req see
system.mem_ctrls.wrQLenPdf::34                      0                       # What write queue length does an incoming req see
system.mem_ctrls.wrQLenPdf::35                      0                       # What write queue length does an incoming req see
system.mem_ctrls.wrQLenPdf::36                      0                       # What write queue length does an incoming req see
system.mem_ctrls.wrQLenPdf::37                      0                       # What write queue length does an incoming req see
system.mem_ctrls.wrQLenPdf::38                      0                       # What write queue length does an incoming req see
system.mem_ctrls.wrQLenPdf::39                      0                       # What write queue length does an incoming req see
system.mem_ctrls.wrQLenPdf::40                      0                       # What write queue length does an incoming req see
system.mem_ctrls.wrQLenPdf::41                      0                       # What write queue length does an incoming req see
system.mem_ctrls.wrQLenPdf::42                      0                       # What write queue length does an incoming req see
system.mem_ctrls.wrQLenPdf::43                      0                       # What write queue length does an incoming req see
system.mem_ctrls.wrQLenPdf::44                      0                       # What write queue length does an incoming req see
system.mem_ctrls.wrQLenPdf::45                      0                       # What write queue length does an incoming req see
system.mem_ctrls.wrQLenPdf::46                      0                       # What write queue length does an incoming req see
system.mem_ctrls.wrQLenPdf::47                      0                       # What write queue length does an incoming req see
system.mem_ctrls.wrQLenPdf::48                      0                       # What write queue length does an incoming req see
system.mem_ctrls.wrQLenPdf::49                      0                       # What write queue length does an incoming req see
system.mem_ctrls.wrQLenPdf::50                      0                       # What write queue length does an incoming req see
system.mem_ctrls.wrQLenPdf::51                      0                       # What write queue length does an incoming req see
system.mem_ctrls.wrQLenPdf::52                      0                       # What write queue length does an incoming req see
system.mem_ctrls.wrQLenPdf::53                      0                       # What write queue length does an incoming req see
system.mem_ctrls.wrQLenPdf::54                      0                       # What write queue length does an incoming req see
system.mem_ctrls.wrQLenPdf::55                      0                       # What write queue length does an incoming req see
system.mem_ctrls.wrQLenPdf::56                      0                       # What write queue length does an incoming req see
system.mem_ctrls.wrQLenPdf::57                      0                       # What write queue length does an incoming req see
system.mem_ctrls.wrQLenPdf::58                      0                       # What write queue length does an incoming req see
system.mem_ctrls.wrQLenPdf::59                      0                       # What write queue length does an incoming req see
system.mem_ctrls.wrQLenPdf::60                      0                       # What write queue length does an incoming req see
system.mem_ctrls.wrQLenPdf::61                      0                       # What write queue length does an incoming req see
system.mem_ctrls.wrQLenPdf::62                      0                       # What write queue length does an incoming req see
system.mem_ctrls.wrQLenPdf::63                      0                       # What write queue length does an incoming req see
system.mem_ctrls.bytesPerActivate::samples          861                       # Bytes accessed per row activation
system.mem_ctrls.bytesPerActivate::mean    246.336818                       # Bytes accessed per row activation
system.mem_ctrls.bytesPerActivate::gmean   169.068016                       # Bytes accessed per row activation
system.mem_ctrls.bytesPerActivate::stdev   265.537424                       # Bytes accessed per row activation
system.mem_ctrls.bytesPerActivate::0-127          190     22.07%     22.07% # Bytes accessed per row activation
system.mem_ctrls.bytesPerActivate::128-255          475     55.17%     77.24% # Bytes accessed per row activation
system.mem_ctrls.bytesPerActivate::256-383           52      6.04%     83.28% # Bytes accessed per row activation
system.mem_ctrls.bytesPerActivate::384-511           28      3.25%     86.53% # Bytes accessed per row activation
system.mem_ctrls.bytesPerActivate::512-639           18      2.09%     88.62% # Bytes accessed per row activation
system.mem_ctrls.bytesPerActivate::640-767           20      2.32%     90.94% # Bytes accessed per row activation
system.mem_ctrls.bytesPerActivate::768-895            7      0.81%     91.75% # Bytes accessed per row activation
system.mem_ctrls.bytesPerActivate::896-1023            8      0.93%     92.68% # Bytes accessed per row activation
system.mem_ctrls.bytesPerActivate::1024-1151           63      7.32%    100.00% # Bytes accessed per row activation
system.mem_ctrls.bytesPerActivate::total          861                       # Bytes accessed per row activation
system.mem_ctrls.masterReadBytes::.cpu.inst        53248                       # Per-master bytes read from memory
system.mem_ctrls.masterReadBytes::.cpu.data       160256                       # Per-master bytes read from memory
system.mem_ctrls.masterReadRate::.cpu.inst 19973854.836198858917                       # Per-master bytes read from memory rate (Bytes/sec)
system.mem_ctrls.masterReadRate::.cpu.data 60113620.805098488927                       # Per-master bytes read from memory rate (Bytes/sec)
system.mem_ctrls.masterReadAccesses::.cpu.inst          832                       # Per-master read serviced memory accesses
system.mem_ctrls.masterReadAccesses::.cpu.data         2504                       # Per-master read serviced memory accesses
system.mem_ctrls.masterReadTotalLat::.cpu.inst     28970000                       # Per-master read total memory access latency
system.mem_ctrls.masterReadTotalLat::.cpu.data     99946000                       # Per-master read total memory access latency
system.mem_ctrls.masterReadAvgLat::.cpu.inst     34819.71                       # Per-master read average memory access latency
system.mem_ctrls.masterReadAvgLat::.cpu.data     39914.54                       # Per-master read average memory access latency
system.mem_ctrls.totQLat                     66366000                       # Total ticks spent queuing
system.mem_ctrls.totMemAccLat               128916000                       # Total ticks spent from burst creation until serviced by the DRAM
system.mem_ctrls.totBusLat                   16680000                       # Total ticks spent in databus transfers
system.mem_ctrls.avgQLat                     19893.88                       # Average queueing delay per DRAM burst
system.mem_ctrls.avgBusLat                    5000.00                       # Average bus latency per DRAM burst
system.mem_ctrls.avgMemAccLat                38643.88                       # Average memory access latency per DRAM burst
system.mem_ctrls.avgRdBW                        80.09                       # Average DRAM read bandwidth in MiByte/s
system.mem_ctrls.avgWrBW                         0.00                       # Average achieved write bandwidth in MiByte/s
system.mem_ctrls.avgRdBWSys                     80.09                       # Average system read bandwidth in MiByte/s
system.mem_ctrls.avgWrBWSys                      0.00                       # Average system write bandwidth in MiByte/s
system.mem_ctrls.peakBW                      12800.00                       # Theoretical peak bandwidth in MiByte/s
system.mem_ctrls.busUtil                         0.63                       # Data bus utilization in percentage
system.mem_ctrls.busUtilRead                     0.63                       # Data bus utilization in percentage for reads
system.mem_ctrls.busUtilWrite                    0.00                       # Data bus utilization in percentage for writes
system.mem_ctrls.avgRdQLen                       1.03                       # Average read queue length when enqueuing
system.mem_ctrls.avgWrQLen                       0.00                       # Average write queue length when enqueuing
system.mem_ctrls.readRowHits                     2465                       # Number of row buffer hits during reads
system.mem_ctrls.writeRowHits                       0                       # Number of row buffer hits during writes
system.mem_ctrls.readRowHitRate                 73.89                       # Row buffer hit rate for reads
system.mem_ctrls.writeRowHitRate                  nan                       # Row buffer hit rate for writes
system.mem_ctrls.avgGap                     799092.63                       # Average gap between requests
system.mem_ctrls.pageHitRate                    73.89                       # Row buffer hit rate, read and write combined
system.mem_ctrls_0.actEnergy                  3848460                       # Energy for activate commands per rank (pJ)
system.mem_ctrls_0.preEnergy                  2030325                       # Energy for precharge commands per rank (pJ)
system.mem_ctrls_0.readEnergy                14522760                       # Energy for read commands per rank (pJ)
system.mem_ctrls_0.writeEnergy                      0                       # Energy for write commands per rank (pJ)
system.mem_ctrls_0.refreshEnergy         161650320.000000                       # Energy for refresh commands per rank (pJ)
system.mem_ctrls_0.actBackEnergy             54347220                       # Energy for active background per rank (pJ)
system.mem_ctrls_0.preBackEnergy              6575040                       # Energy for precharge background per rank (pJ)
system.mem_ctrls_0.actPowerDownEnergy       682693560                       # Energy for active power-down per rank (pJ)
system.mem_ctrls_0.prePowerDownEnergy       162985920                       # Energy for precharge power-down per rank (pJ)
system.mem_ctrls_0.selfRefreshEnergy        156413160                       # Energy for self refresh per rank (pJ)
system.mem_ctrls_0.totalEnergy             1245115935                       # Total energy per rank (pJ)
system.mem_ctrls_0.averagePower            467.055381                       # Core power per rank (mW)
system.mem_ctrls_0.totalIdleTime           2529346250                       # Total Idle time Per DRAM Rank
system.mem_ctrls_0.memoryStateTime::IDLE      9987000                       # Time in different power states
system.mem_ctrls_0.memoryStateTime::REF      68380000                       # Time in different power states
system.mem_ctrls_0.memoryStateTime::SREF    607895250                       # Time in different power states
system.mem_ctrls_0.memoryStateTime::PRE_PDN    424483750                       # Time in different power states
system.mem_ctrls_0.memoryStateTime::ACT      57964250                       # Time in different power states
system.mem_ctrls_0.memoryStateTime::ACT_PDN   1497174750                       # Time in different power states
system.mem_ctrls_1.actEnergy                  2370480                       # Energy for activate commands per rank (pJ)
system.mem_ctrls_1.preEnergy                  1237170                       # Energy for precharge commands per rank (pJ)
system.mem_ctrls_1.readEnergy                 9296280                       # Energy for read commands per rank (pJ)
system.mem_ctrls_1.writeEnergy                      0                       # Energy for write commands per rank (pJ)
system.mem_ctrls_1.refreshEnergy         72527520.000000                       # Energy for refresh commands per rank (pJ)
system.mem_ctrls_1.actBackEnergy             29314530                       # Energy for active background per rank (pJ)
system.mem_ctrls_1.preBackEnergy              2465760                       # Energy for precharge background per rank (pJ)
system.mem_ctrls_1.actPowerDownEnergy       296411400                       # Energy for active power-down per rank (pJ)
system.mem_ctrls_1.prePowerDownEnergy        78028800                       # Energy for precharge power-down per rank (pJ)
system.mem_ctrls_1.selfRefreshEnergy        423038760                       # Energy for self refresh per rank (pJ)
system.mem_ctrls_1.totalEnergy              914690700                       # Total energy per rank (pJ)
system.mem_ctrls_1.averagePower            343.109586                       # Core power per rank (mW)
system.mem_ctrls_1.totalIdleTime           2595093000                       # Total Idle time Per DRAM Rank
system.mem_ctrls_1.memoryStateTime::IDLE      3191000                       # Time in different power states
system.mem_ctrls_1.memoryStateTime::REF      30680000                       # Time in different power states
system.mem_ctrls_1.memoryStateTime::SREF   1741951500                       # Time in different power states
system.mem_ctrls_1.memoryStateTime::PRE_PDN    203186500                       # Time in different power states
system.mem_ctrls_1.memoryStateTime::ACT      36856750                       # Time in different power states
system.mem_ctrls_1.memoryStateTime::ACT_PDN    650019250                       # Time in different power states
system.pwrStateResidencyTicks::UNDEFINED   2665885000                       # Cumulative time (in ticks) in various power states
system.cpu.branchPred.lookups                 1374492                       # Number of BP lookups
system.cpu.branchPred.condPredicted           1374492                       # Number of conditional branches predicted
system.cpu.branchPred.condIncorrect            114049                       # Number of conditional branches incorrect
system.cpu.branchPred.BTBLookups               757496                       # Number of BTB lookups
system.cpu.branchPred.BTBHits                       0                       # Number of BTB hits
system.cpu.branchPred.BTBCorrect                    0                       # Number of correct BTB predictions (this stat may not work properly.
system.cpu.branchPred.BTBHitPct              0.000000                       # BTB Hit Percentage
system.cpu.branchPred.usedRAS                   18652                       # Number of times the RAS was used to get a target.
system.cpu.branchPred.RASInCorrect               3246                       # Number of incorrect RAS predictions.
system.cpu.branchPred.indirectLookups          757496                       # Number of indirect predictor lookups.
system.cpu.branchPred.indirectHits             408898                       # Number of indirect target hits.
system.cpu.branchPred.indirectMisses           348598                       # Number of indirect misses.
system.cpu.branchPredindirectMispredicted        41499                       # Number of mispredicted indirect branches.
system.cpu_voltage_domain.voltage                   1                       # Voltage in Volts
system.cpu_clk_domain.clock                      1000                       # Clock period in ticks
system.cpu.dtb.walker.pwrStateResidencyTicks::UNDEFINED   2665885000                       # Cumulative time (in ticks) in various power states
system.cpu.dtb.rdAccesses                      561777                       # TLB accesses on read requests
system.cpu.dtb.wrAccesses                      395203                       # TLB accesses on write requests
system.cpu.dtb.rdMisses                           486                       # TLB misses on read requests
system.cpu.dtb.wrMisses                            85                       # TLB misses on write requests
system.cpu.apic_clk_domain.clock                16000                       # Clock period in ticks
system.cpu.interrupts.pwrStateResidencyTicks::UNDEFINED   2665885000                       # Cumulative time (in ticks) in various power states
system.cpu.itb.walker.pwrStateResidencyTicks::UNDEFINED   2665885000                       # Cumulative time (in ticks) in various power states
system.cpu.itb.rdAccesses                           0                       # TLB accesses on read requests
system.cpu.itb.wrAccesses                      342472                       # TLB accesses on write requests
system.cpu.itb.rdMisses                             0                       # TLB misses on read requests
system.cpu.itb.wrMisses                           121                       # TLB misses on write requests
system.cpu.workload.numSyscalls                    27                       # Number of system calls
system.cpu.pwrStateResidencyTicks::ON      2665885000                       # Cumulative time (in ticks) in various power states
system.cpu.numCycles                          2665886                       # number of cpu cycles simulated
system.cpu.numWorkItemsStarted                      0                       # number of work items this cpu started
system.cpu.numWorkItemsCompleted                    0                       # number of work items this cpu completed
system.cpu.fetch.icacheStallCycles             413382                       # Number of cycles fetch is stalled on an Icache miss
system.cpu.fetch.Insts                        7797394                       # Number of instructions fetch has processed
system.cpu.fetch.Branches                     1374492                       # Number of branches that fetch encountered
system.cpu.fetch.predictedBranches             427550                       # Number of branches that fetch has predicted taken
system.cpu.fetch.Cycles                       2102836                       # Number of cycles fetch has run and was not squashing or blocked
system.cpu.fetch.SquashCycles                  228298                       # Number of cycles fetch has spent squashing
system.cpu.fetch.TlbCycles                        117                       # Number of cycles fetch has spent waiting for tlb
system.cpu.fetch.MiscStallCycles                   23                       # Number of cycles fetch has spent waiting on interrupts, or bad addresses, or out of MSHRs
system.cpu.fetch.PendingTrapStallCycles           348                       # Number of stall cycles due to pending traps
system.cpu.fetch.PendingQuiesceStallCycles           25                       # Number of stall cycles due to pending quiesce instructions
system.cpu.fetch.IcacheWaitRetryStallCycles           15                       # Number of stall cycles due to full MSHR
system.cpu.fetch.CacheLines                    342423                       # Number of cache lines fetched
system.cpu.fetch.IcacheSquashes                 18503                       # Number of outstanding Icache misses that were squashed
system.cpu.fetch.rateDist::samples            2630895                       # Number of instructions fetched each cycle (Total)
system.cpu.fetch.rateDist::mean              4.715645                       # Number of instructions fetched each cycle (Total)
system.cpu.fetch.rateDist::stdev             3.603661                       # Number of instructions fetched each cycle (Total)
system.cpu.fetch.rateDist::underflows               0      0.00%      0.00% # Number of instructions fetched each cycle (Total)
system.cpu.fetch.rateDist::0                   799476     30.39%     30.39% # Number of instructions fetched each cycle (Total)
system.cpu.fetch.rateDist::1                   111109      4.22%     34.61% # Number of instructions fetched each cycle (Total)
system.cpu.fetch.rateDist::2                    35456      1.35%     35.96% # Number of instructions fetched each cycle (Total)
system.cpu.fetch.rateDist::3                    77179      2.93%     38.89% # Number of instructions fetched each cycle (Total)
system.cpu.fetch.rateDist::4                   112013      4.26%     43.15% # Number of instructions fetched each cycle (Total)
system.cpu.fetch.rateDist::5                    53430      2.03%     45.18% # Number of instructions fetched each cycle (Total)
system.cpu.fetch.rateDist::6                    97595      3.71%     48.89% # Number of instructions fetched each cycle (Total)
system.cpu.fetch.rateDist::7                    65060      2.47%     51.36% # Number of instructions fetched each cycle (Total)
system.cpu.fetch.rateDist::8                  1279577     48.64%    100.00% # Number of instructions fetched each cycle (Total)
system.cpu.fetch.rateDist::overflows                0      0.00%    100.00% # Number of instructions fetched each cycle (Total)
system.cpu.fetch.rateDist::min_value                0                       # Number of instructions fetched each cycle (Total)
system.cpu.fetch.rateDist::max_value                8                       # Number of instructions fetched each cycle (Total)
system.cpu.fetch.rateDist::total              2630895                       # Number of instructions fetched each cycle (Total)
system.cpu.fetch.branchRate                  0.515585                       # Number of branch fetches per cycle
system.cpu.fetch.rate                        2.924879                       # Number of inst fetches per cycle
system.cpu.decode.IdleCycles                   411917                       # Number of cycles decode is idle
system.cpu.decode.BlockedCycles                608498                       # Number of cycles decode is blocked
system.cpu.decode.RunCycles                   1339306                       # Number of cycles decode is running
system.cpu.decode.UnblockCycles                157025                       # Number of cycles decode is unblocking
system.cpu.decode.SquashCycles                 114149                       # Number of cycles decode is squashing
system.cpu.decode.DecodedInsts               11220399                       # Number of instructions handled by decode
system.cpu.rename.SquashCycles                 114149                       # Number of cycles rename is squashing
system.cpu.rename.IdleCycles                   509160                       # Number of cycles rename is idle
system.cpu.rename.BlockCycles                  553670                       # Number of cycles rename is blocking
system.cpu.rename.serializeStallCycles           1931                       # count of cycles rename stalled for serializing inst
system.cpu.rename.RunCycles                   1354619                       # Number of cycles rename is running
system.cpu.rename.UnblockCycles                 97366                       # Number of cycles rename is unblocking
system.cpu.rename.RenamedInsts               10538737                       # Number of instructions processed by rename
system.cpu.rename.ROBFullEvents                  2471                       # Number of times rename has blocked due to ROB full
system.cpu.rename.IQFullEvents                   8035                       # Number of times rename has blocked due to IQ full
system.cpu.rename.LQFullEvents                    298                       # Number of times rename has blocked due to LQ full
system.cpu.rename.SQFullEvents                  39783                       # Number of times rename has blocked due to SQ full
system.cpu.rename.RenamedOperands            13359416                       # Number of destination operands rename has renamed
system.cpu.rename.RenameLookups              25075470                       # Number of register rename lookups that rename has made
system.cpu.rename.int_rename_lookups         15362486                       # Number of integer rename lookups
system.cpu.rename.fp_rename_lookups             58975                       # Number of floating rename lookups
system.cpu.rename.CommittedMaps               6107409                       # Number of HB maps that are committed
system.cpu.rename.UndoneMaps                  7252007                       # Number of HB maps that are undone due to squashing
system.cpu.rename.serializingInsts                 90                       # count of serializing insts renamed
system.cpu.rename.tempSerializingInsts             61                       # count of temporary serializing insts renamed
system.cpu.rename.skidInsts                    425721                       # count of insts added to the skid buffer
system.cpu.memDep0.insertedLoads               702177                       # Number of loads inserted to the mem dependence unit.
system.cpu.memDep0.insertedStores              568122                       # Number of stores inserted to the mem dependence unit.
system.cpu.memDep0.conflictingLoads             91145                       # Number of conflicting loads.
system.cpu.memDep0.conflictingStores            56882                       # Number of conflicting stores.
system.cpu.iq.iqInstsAdded                    9153749                       # Number of instructions added to the IQ (excludes non-spec)
system.cpu.iq.iqNonSpecInstsAdded                  78                       # Number of non-speculative instructions added to the IQ
system.cpu.iq.iqInstsIssued                   7694432                       # Number of instructions issued
system.cpu.iq.iqSquashedInstsIssued            244331                       # Number of squashed instructions issued
system.cpu.iq.iqSquashedInstsExamined         4272657                       # Number of squashed instructions iterated over during squash; mainly for profiling
system.cpu.iq.iqSquashedOperandsExamined      5219509                       # Number of squashed operands that are examined and possibly removed from graph
system.cpu.iq.iqSquashedNonSpecRemoved             51                       # Number of squashed non-spec instructions that were removed
system.cpu.iq.issued_per_cycle::samples       2630895                       # Number of insts issued each cycle
system.cpu.iq.issued_per_cycle::mean         2.924644                       # Number of insts issued each cycle
system.cpu.iq.issued_per_cycle::stdev        2.883861                       # Number of insts issued each cycle
system.cpu.iq.issued_per_cycle::underflows            0      0.00%      0.00% # Number of insts issued each cycle
system.cpu.iq.issued_per_cycle::0             1110846     42.22%     42.22% # Number of insts issued each cycle
system.cpu.iq.issued_per_cycle::1               69817      2.65%     44.88% # Number of insts issued each cycle
system.cpu.iq.issued_per_cycle::2              116693      4.44%     49.31% # Number of insts issued each cycle
system.cpu.iq.issued_per_cycle::3              145185      5.52%     54.83% # Number of insts issued each cycle
system.cpu.iq.issued_per_cycle::4              247675      9.41%     64.24% # Number of insts issued each cycle
system.cpu.iq.issued_per_cycle::5              135873      5.16%     69.41% # Number of insts issued each cycle
system.cpu.iq.issued_per_cycle::6              482920     18.36%     87.77% # Number of insts issued each cycle
system.cpu.iq.issued_per_cycle::7              186999      7.11%     94.87% # Number of insts issued each cycle
system.cpu.iq.issued_per_cycle::8              134887      5.13%    100.00% # Number of insts issued each cycle
system.cpu.iq.issued_per_cycle::overflows            0      0.00%    100.00% # Number of insts issued each cycle
system.cpu.iq.issued_per_cycle::min_value            0                       # Number of insts issued each cycle
system.cpu.iq.issued_per_cycle::max_value            8                       # Number of insts issued each cycle
system.cpu.iq.issued_per_cycle::total         2630895                       # Number of insts issued each cycle
system.cpu.iq.fu_full::No_OpClass                   0      0.00%      0.00% # attempts to use FU when none available
system.cpu.iq.fu_full::IntAlu                  474027     99.73%     99.73% # attempts to use FU when none available
system.cpu.iq.fu_full::IntMult                      0      0.00%     99.73% # attempts to use FU when none available
system.cpu.iq.fu_full::IntDiv                       0      0.00%     99.73% # attempts to use FU when none available
system.cpu.iq.fu_full::FloatAdd                     0      0.00%     99.73% # attempts to use FU when none available
system.cpu.iq.fu_full::FloatCmp                     0      0.00%     99.73% # attempts to use FU when none available
system.cpu.iq.fu_full::FloatCvt                     0      0.00%     99.73% # attempts to use FU when none available
system.cpu.iq.fu_full::FloatMult                    0      0.00%     99.73% # attempts to use FU when none available
system.cpu.iq.fu_full::FloatMultAcc                 0      0.00%     99.73% # attempts to use FU when none available
system.cpu.iq.fu_full::FloatDiv                     0      0.00%     99.73% # attempts to use FU when none available
system.cpu.iq.fu_full::FloatMisc                    0      0.00%     99.73% # attempts to use FU when none available
system.cpu.iq.fu_full::FloatSqrt                    0      0.00%     99.73% # attempts to use FU when none available
system.cpu.iq.fu_full::SimdAdd                      1      0.00%     99.73% # attempts to use FU when none available
system.cpu.iq.fu_full::SimdAddAcc                   0      0.00%     99.73% # attempts to use FU when none available
system.cpu.iq.fu_full::SimdAlu                     15      0.00%     99.73% # attempts to use FU when none available
system.cpu.iq.fu_full::SimdCmp                      0      0.00%     99.73% # attempts to use FU when none available
system.cpu.iq.fu_full::SimdCvt                     13      0.00%     99.73% # attempts to use FU when none available
system.cpu.iq.fu_full::SimdMisc                     2      0.00%     99.73% # attempts to use FU when none available
system.cpu.iq.fu_full::SimdMult                     0      0.00%     99.73% # attempts to use FU when none available
system.cpu.iq.fu_full::SimdMultAcc                  0      0.00%     99.73% # attempts to use FU when none available
system.cpu.iq.fu_full::SimdShift                    1      0.00%     99.73% # attempts to use FU when none available
system.cpu.iq.fu_full::SimdShiftAcc                 0      0.00%     99.73% # attempts to use FU when none available
system.cpu.iq.fu_full::SimdSqrt                     0      0.00%     99.73% # attempts to use FU when none available
system.cpu.iq.fu_full::SimdFloatAdd                 0      0.00%     99.73% # attempts to use FU when none available
system.cpu.iq.fu_full::SimdFloatAlu                 0      0.00%     99.73% # attempts to use FU when none available
system.cpu.iq.fu_full::SimdFloatCmp                 0      0.00%     99.73% # attempts to use FU when none available
system.cpu.iq.fu_full::SimdFloatCvt                 0      0.00%     99.73% # attempts to use FU when none available
system.cpu.iq.fu_full::SimdFloatDiv                 0      0.00%     99.73% # attempts to use FU when none available
system.cpu.iq.fu_full::SimdFloatMisc                0      0.00%     99.73% # attempts to use FU when none available
system.cpu.iq.fu_full::SimdFloatMult                0      0.00%     99.73% # attempts to use FU when none available
system.cpu.iq.fu_full::SimdFloatMultAcc             0      0.00%     99.73% # attempts to use FU when none available
system.cpu.iq.fu_full::SimdFloatSqrt                0      0.00%     99.73% # attempts to use FU when none available
system.cpu.iq.fu_full::SimdAes                      0      0.00%     99.73% # attempts to use FU when none available
system.cpu.iq.fu_full::SimdAesMix                   0      0.00%     99.73% # attempts to use FU when none available
system.cpu.iq.fu_full::SimdSha1Hash                 0      0.00%     99.73% # attempts to use FU when none available
system.cpu.iq.fu_full::SimdSha1Hash2                0      0.00%     99.73% # attempts to use FU when none available
system.cpu.iq.fu_full::SimdSha256Hash               0      0.00%     99.73% # attempts to use FU when none available
system.cpu.iq.fu_full::SimdSha256Hash2              0      0.00%     99.73% # attempts to use FU when none available
system.cpu.iq.fu_full::SimdShaSigma2                0      0.00%     99.73% # attempts to use FU when none available
system.cpu.iq.fu_full::SimdShaSigma3                0      0.00%     99.73% # attempts to use FU when none available
system.cpu.iq.fu_full::MemRead                    642      0.14%     99.87% # attempts to use FU when none available
system.cpu.iq.fu_full::MemWrite                   450      0.09%     99.96% # attempts to use FU when none available
system.cpu.iq.fu_full::FloatMemRead               148      0.03%     99.99% # attempts to use FU when none available
system.cpu.iq.fu_full::FloatMemWrite               29      0.01%    100.00% # attempts to use FU when none available
system.cpu.iq.fu_full::IprAccess                    0      0.00%    100.00% # attempts to use FU when none available
system.cpu.iq.fu_full::InstPrefetch                 0      0.00%    100.00% # attempts to use FU when none available
system.cpu.iq.FU_type_0::No_OpClass             47462      0.62%      0.62% # Type of FU issued
system.cpu.iq.FU_type_0::IntAlu               6625372     86.11%     86.72% # Type of FU issued
system.cpu.iq.FU_type_0::IntMult                   25      0.00%     86.72% # Type of FU issued
system.cpu.iq.FU_type_0::IntDiv                  1168      0.02%     86.74% # Type of FU issued
system.cpu.iq.FU_type_0::FloatAdd                 191      0.00%     86.74% # Type of FU issued
system.cpu.iq.FU_type_0::FloatCmp                   0      0.00%     86.74% # Type of FU issued
system.cpu.iq.FU_type_0::FloatCvt                   0      0.00%     86.74% # Type of FU issued
system.cpu.iq.FU_type_0::FloatMult                  0      0.00%     86.74% # Type of FU issued
system.cpu.iq.FU_type_0::FloatMultAcc               0      0.00%     86.74% # Type of FU issued
system.cpu.iq.FU_type_0::FloatDiv                   0      0.00%     86.74% # Type of FU issued
system.cpu.iq.FU_type_0::FloatMisc                  0      0.00%     86.74% # Type of FU issued
system.cpu.iq.FU_type_0::FloatSqrt                  0      0.00%     86.74% # Type of FU issued
system.cpu.iq.FU_type_0::SimdAdd                  399      0.01%     86.75% # Type of FU issued
system.cpu.iq.FU_type_0::SimdAddAcc                 0      0.00%     86.75% # Type of FU issued
system.cpu.iq.FU_type_0::SimdAlu                  841      0.01%     86.76% # Type of FU issued
system.cpu.iq.FU_type_0::SimdCmp                    6      0.00%     86.76% # Type of FU issued
system.cpu.iq.FU_type_0::SimdCvt                  988      0.01%     86.77% # Type of FU issued
system.cpu.iq.FU_type_0::SimdMisc                 605      0.01%     86.78% # Type of FU issued
system.cpu.iq.FU_type_0::SimdMult                   0      0.00%     86.78% # Type of FU issued
system.cpu.iq.FU_type_0::SimdMultAcc                0      0.00%     86.78% # Type of FU issued
system.cpu.iq.FU_type_0::SimdShift                223      0.00%     86.78% # Type of FU issued
system.cpu.iq.FU_type_0::SimdShiftAcc               0      0.00%     86.78% # Type of FU issued
system.cpu.iq.FU_type_0::SimdSqrt                   0      0.00%     86.78% # Type of FU issued
system.cpu.iq.FU_type_0::SimdFloatAdd               0      0.00%     86.78% # Type of FU issued
system.cpu.iq.FU_type_0::SimdFloatAlu               0      0.00%     86.78% # Type of FU issued
system.cpu.iq.FU_type_0::SimdFloatCmp               0      0.00%     86.78% # Type of FU issued
system.cpu.iq.FU_type_0::SimdFloatCvt               0      0.00%     86.78% # Type of FU issued
system.cpu.iq.FU_type_0::SimdFloatDiv               0      0.00%     86.78% # Type of FU issued
system.cpu.iq.FU_type_0::SimdFloatMisc              0      0.00%     86.78% # Type of FU issued
system.cpu.iq.FU_type_0::SimdFloatMult              0      0.00%     86.78% # Type of FU issued
system.cpu.iq.FU_type_0::SimdFloatMultAcc            0      0.00%     86.78% # Type of FU issued
system.cpu.iq.FU_type_0::SimdFloatSqrt              0      0.00%     86.78% # Type of FU issued
system.cpu.iq.FU_type_0::SimdAes                    0      0.00%     86.78% # Type of FU issued
system.cpu.iq.FU_type_0::SimdAesMix                 0      0.00%     86.78% # Type of FU issued
system.cpu.iq.FU_type_0::SimdSha1Hash               0      0.00%     86.78% # Type of FU issued
system.cpu.iq.FU_type_0::SimdSha1Hash2              0      0.00%     86.78% # Type of FU issued
system.cpu.iq.FU_type_0::SimdSha256Hash             0      0.00%     86.78% # Type of FU issued
system.cpu.iq.FU_type_0::SimdSha256Hash2            0      0.00%     86.78% # Type of FU issued
system.cpu.iq.FU_type_0::SimdShaSigma2              0      0.00%     86.78% # Type of FU issued
system.cpu.iq.FU_type_0::SimdShaSigma3              0      0.00%     86.78% # Type of FU issued
system.cpu.iq.FU_type_0::MemRead               541141      7.03%     93.81% # Type of FU issued
system.cpu.iq.FU_type_0::MemWrite              388922      5.05%     98.87% # Type of FU issued
system.cpu.iq.FU_type_0::FloatMemRead           45285      0.59%     99.46% # Type of FU issued
system.cpu.iq.FU_type_0::FloatMemWrite          41804      0.54%    100.00% # Type of FU issued
system.cpu.iq.FU_type_0::IprAccess                  0      0.00%    100.00% # Type of FU issued
system.cpu.iq.FU_type_0::InstPrefetch               0      0.00%    100.00% # Type of FU issued
system.cpu.iq.FU_type_0::total                7694432                       # Type of FU issued
system.cpu.iq.rate                           2.886257                       # Inst issue rate
system.cpu.iq.fu_busy_cnt                      475328                       # FU busy when requested
system.cpu.iq.fu_busy_rate                   0.061776                       # FU busy rate (busy events/executed inst)
system.cpu.iq.int_inst_queue_reads           18558280                       # Number of integer instruction queue reads
system.cpu.iq.int_inst_queue_writes          13317032                       # Number of integer instruction queue writes
system.cpu.iq.int_inst_queue_wakeup_accesses      7339572                       # Number of integer instruction queue wakeup accesses
system.cpu.iq.fp_inst_queue_reads              181138                       # Number of floating instruction queue reads
system.cpu.iq.fp_inst_queue_writes             109554                       # Number of floating instruction queue writes
system.cpu.iq.fp_inst_queue_wakeup_accesses        87127                       # Number of floating instruction queue wakeup accesses
system.cpu.iq.vec_inst_queue_reads                  0                       # Number of vector instruction queue reads
system.cpu.iq.vec_inst_queue_writes                 0                       # Number of vector instruction queue writes
system.cpu.iq.vec_inst_queue_wakeup_accesses            0                       # Number of vector instruction queue wakeup accesses
system.cpu.iq.int_alu_accesses                8031677                       # Number of integer alu accesses
system.cpu.iq.fp_alu_accesses                   90621                       # Number of floating point alu accesses
system.cpu.iq.vec_alu_accesses                      0                       # Number of vector alu accesses
system.cpu.iew.lsq.thread0.forwLoads            29609                       # Number of loads that had data forwarded from stores
system.cpu.iew.lsq.thread0.invAddrLoads             0                       # Number of loads ignored due to an invalid address
system.cpu.iew.lsq.thread0.squashedLoads       282774                       # Number of loads squashed
system.cpu.iew.lsq.thread0.ignoredResponses          110                       # Number of memory responses ignored because the instruction is squashed
system.cpu.iew.lsq.thread0.memOrderViolation          106                       # Number of memory ordering violations
system.cpu.iew.lsq.thread0.squashedStores       259584                       # Number of stores squashed
system.cpu.iew.lsq.thread0.invAddrSwpfs             0                       # Number of software prefetches ignored due to an invalid address
system.cpu.iew.lsq.thread0.blockedLoads             0                       # Number of blocked loads due to partial load-store forwarding
system.cpu.iew.lsq.thread0.rescheduledLoads            4                       # Number of loads that were rescheduled
system.cpu.iew.lsq.thread0.cacheBlocked           190                       # Number of times an access to memory failed due to the cache being blocked
system.cpu.iew.iewIdleCycles                        0                       # Number of cycles IEW is idle
system.cpu.iew.iewSquashCycles                 114149                       # Number of cycles IEW is squashing
system.cpu.iew.iewBlockCycles                  521286                       # Number of cycles IEW is blocking
system.cpu.iew.iewUnblockCycles                  3874                       # Number of cycles IEW is unblocking
system.cpu.iew.iewDispatchedInsts             9153827                       # Number of instructions dispatched to IQ
system.cpu.iew.iewDispSquashedInsts              6807                       # Number of squashed instructions skipped by dispatch
system.cpu.iew.iewDispLoadInsts                702177                       # Number of dispatched load instructions
system.cpu.iew.iewDispStoreInsts               568122                       # Number of dispatched store instructions
system.cpu.iew.iewDispNonSpecInsts                 58                       # Number of dispatched non-speculative instructions
system.cpu.iew.iewIQFullEvents                    675                       # Number of times the IQ has become full, causing a stall
system.cpu.iew.iewLSQFullEvents                  2939                       # Number of times the LSQ has become full, causing a stall
system.cpu.iew.memOrderViolationEvents            106                       # Number of memory order violations
system.cpu.iew.predictedTakenIncorrect          44913                       # Number of branches that were predicted taken incorrectly
system.cpu.iew.predictedNotTakenIncorrect        83931                       # Number of branches that were predicted not taken incorrectly
system.cpu.iew.branchMispredicts               128844                       # Number of branch mispredicts detected at execute
system.cpu.iew.iewExecutedInsts               7513024                       # Number of executed instructions
system.cpu.iew.iewExecLoadInsts                561752                       # Number of load instructions executed
system.cpu.iew.iewExecSquashedInsts            181408                       # Number of squashed instructions skipped in execute
system.cpu.iew.exec_swp                             0                       # number of swp insts executed
system.cpu.iew.exec_nop                             0                       # number of nop insts executed
system.cpu.iew.exec_refs                       956953                       # number of memory reference insts executed
system.cpu.iew.exec_branches                   777570                       # Number of branches executed
system.cpu.iew.exec_stores                     395201                       # Number of stores executed
system.cpu.iew.exec_rate                     2.818209                       # Inst execution rate
system.cpu.iew.wb_sent                        7477047                       # cumulative count of insts sent to commit
system.cpu.iew.wb_count                       7426699                       # cumulative count of insts written-back
system.cpu.iew.wb_producers                   5419368                       # num instructions producing a value
system.cpu.iew.wb_consumers                   7943898                       # num instructions consuming a value
system.cpu.iew.wb_rate                       2.785828                       # insts written-back per cycle
system.cpu.iew.wb_fanout                     0.682205                       # average fanout of values written-back
system.cpu.commit.commitSquashedInsts         4272771                       # The number of squashed insts skipped by commit
system.cpu.commit.commitNonSpecStalls              27                       # The number of times commit has been forced to stall to communicate backwards
system.cpu.commit.branchMispredicts            114070                       # The number of times a branch was mispredicted
system.cpu.commit.committed_per_cycle::samples      2026579                       # Number of insts commited each cycle
system.cpu.commit.committed_per_cycle::mean     2.408576                       # Number of insts commited each cycle
system.cpu.commit.committed_per_cycle::stdev     2.955553                       # Number of insts commited each cycle
system.cpu.commit.committed_per_cycle::underflows            0      0.00%      0.00% # Number of insts commited each cycle
system.cpu.commit.committed_per_cycle::0       875336     43.19%     43.19% # Number of insts commited each cycle
system.cpu.commit.committed_per_cycle::1       258044     12.73%     55.93% # Number of insts commited each cycle
system.cpu.commit.committed_per_cycle::2       181257      8.94%     64.87% # Number of insts commited each cycle
system.cpu.commit.committed_per_cycle::3       147579      7.28%     72.15% # Number of insts commited each cycle
system.cpu.commit.committed_per_cycle::4        85260      4.21%     76.36% # Number of insts commited each cycle
system.cpu.commit.committed_per_cycle::5        56056      2.77%     79.13% # Number of insts commited each cycle
system.cpu.commit.committed_per_cycle::6        62448      3.08%     82.21% # Number of insts commited each cycle
system.cpu.commit.committed_per_cycle::7        62926      3.11%     85.31% # Number of insts commited each cycle
system.cpu.commit.committed_per_cycle::8       297673     14.69%    100.00% # Number of insts commited each cycle
system.cpu.commit.committed_per_cycle::overflows            0      0.00%    100.00% # Number of insts commited each cycle
system.cpu.commit.committed_per_cycle::min_value            0                       # Number of insts commited each cycle
system.cpu.commit.committed_per_cycle::max_value            8                       # Number of insts commited each cycle
system.cpu.commit.committed_per_cycle::total      2026579                       # Number of insts commited each cycle
system.cpu.commit.committedInsts              2993062                       # Number of instructions committed
system.cpu.commit.committedOps                4881169                       # Number of ops (including micro ops) committed
system.cpu.commit.swp_count                         0                       # Number of s/w prefetches committed
system.cpu.commit.refs                         727941                       # Number of memory references committed
system.cpu.commit.loads                        419403                       # Number of loads committed
system.cpu.commit.membars                           0                       # Number of memory barriers committed
system.cpu.commit.branches                     542927                       # Number of branches committed
system.cpu.commit.vec_insts                         0                       # Number of committed Vector instructions.
system.cpu.commit.fp_insts                      84924                       # Number of committed floating point instructions.
system.cpu.commit.int_insts                   4862924                       # Number of committed integer instructions.
system.cpu.commit.function_calls                 8778                       # Number of function calls committed.
system.cpu.commit.op_class_0::No_OpClass        16513      0.34%      0.34% # Class of committed instruction
system.cpu.commit.op_class_0::IntAlu          4133662     84.69%     85.02% # Class of committed instruction
system.cpu.commit.op_class_0::IntMult              11      0.00%     85.02% # Class of committed instruction
system.cpu.commit.op_class_0::IntDiv             1083      0.02%     85.05% # Class of committed instruction
system.cpu.commit.op_class_0::FloatAdd             18      0.00%     85.05% # Class of committed instruction
system.cpu.commit.op_class_0::FloatCmp              0      0.00%     85.05% # Class of committed instruction
system.cpu.commit.op_class_0::FloatCvt              0      0.00%     85.05% # Class of committed instruction
system.cpu.commit.op_class_0::FloatMult             0      0.00%     85.05% # Class of committed instruction
system.cpu.commit.op_class_0::FloatMultAcc            0      0.00%     85.05% # Class of committed instruction
system.cpu.commit.op_class_0::FloatDiv              0      0.00%     85.05% # Class of committed instruction
system.cpu.commit.op_class_0::FloatMisc             0      0.00%     85.05% # Class of committed instruction
system.cpu.commit.op_class_0::FloatSqrt             0      0.00%     85.05% # Class of committed instruction
system.cpu.commit.op_class_0::SimdAdd             284      0.01%     85.05% # Class of committed instruction
system.cpu.commit.op_class_0::SimdAddAcc            0      0.00%     85.05% # Class of committed instruction
system.cpu.commit.op_class_0::SimdAlu             403      0.01%     85.06% # Class of committed instruction
system.cpu.commit.op_class_0::SimdCmp               6      0.00%     85.06% # Class of committed instruction
system.cpu.commit.op_class_0::SimdCvt             664      0.01%     85.07% # Class of committed instruction
system.cpu.commit.op_class_0::SimdMisc            482      0.01%     85.08% # Class of committed instruction
system.cpu.commit.op_class_0::SimdMult              0      0.00%     85.08% # Class of committed instruction
system.cpu.commit.op_class_0::SimdMultAcc            0      0.00%     85.08% # Class of committed instruction
system.cpu.commit.op_class_0::SimdShift           102      0.00%     85.09% # Class of committed instruction
system.cpu.commit.op_class_0::SimdShiftAcc            0      0.00%     85.09% # Class of committed instruction
system.cpu.commit.op_class_0::SimdSqrt              0      0.00%     85.09% # Class of committed instruction
system.cpu.commit.op_class_0::SimdFloatAdd            0      0.00%     85.09% # Class of committed instruction
system.cpu.commit.op_class_0::SimdFloatAlu            0      0.00%     85.09% # Class of committed instruction
system.cpu.commit.op_class_0::SimdFloatCmp            0      0.00%     85.09% # Class of committed instruction
system.cpu.commit.op_class_0::SimdFloatCvt            0      0.00%     85.09% # Class of committed instruction
system.cpu.commit.op_class_0::SimdFloatDiv            0      0.00%     85.09% # Class of committed instruction
system.cpu.commit.op_class_0::SimdFloatMisc            0      0.00%     85.09% # Class of committed instruction
system.cpu.commit.op_class_0::SimdFloatMult            0      0.00%     85.09% # Class of committed instruction
system.cpu.commit.op_class_0::SimdFloatMultAcc            0      0.00%     85.09% # Class of committed instruction
system.cpu.commit.op_class_0::SimdFloatSqrt            0      0.00%     85.09% # Class of committed instruction
system.cpu.commit.op_class_0::SimdAes               0      0.00%     85.09% # Class of committed instruction
system.cpu.commit.op_class_0::SimdAesMix            0      0.00%     85.09% # Class of committed instruction
system.cpu.commit.op_class_0::SimdSha1Hash            0      0.00%     85.09% # Class of committed instruction
system.cpu.commit.op_class_0::SimdSha1Hash2            0      0.00%     85.09% # Class of committed instruction
system.cpu.commit.op_class_0::SimdSha256Hash            0      0.00%     85.09% # Class of committed instruction
system.cpu.commit.op_class_0::SimdSha256Hash2            0      0.00%     85.09% # Class of committed instruction
system.cpu.commit.op_class_0::SimdShaSigma2            0      0.00%     85.09% # Class of committed instruction
system.cpu.commit.op_class_0::SimdShaSigma3            0      0.00%     85.09% # Class of committed instruction
system.cpu.commit.op_class_0::MemRead          377781      7.74%     92.83% # Class of committed instruction
system.cpu.commit.op_class_0::MemWrite         267242      5.47%     98.30% # Class of committed instruction
system.cpu.commit.op_class_0::FloatMemRead        41622      0.85%     99.15% # Class of committed instruction
system.cpu.commit.op_class_0::FloatMemWrite        41296      0.85%    100.00% # Class of committed instruction
system.cpu.commit.op_class_0::IprAccess             0      0.00%    100.00% # Class of committed instruction
system.cpu.commit.op_class_0::InstPrefetch            0      0.00%    100.00% # Class of committed instruction
system.cpu.commit.op_class_0::total           4881169                       # Class of committed instruction
system.cpu.commit.bw_lim_events                297673                       # number cycles where commit BW limit reached
system.cpu.rob.rob_reads                     10882846                       # The number of ROB reads
system.cpu.rob.rob_writes                    18919820                       # The number of ROB writes
system.cpu.timesIdled                             490                       # Number of times that the entire CPU went into an idle state and unscheduled itself
system.cpu.idleCycles                           34991                       # Total number of cycles that the CPU has spent unscheduled due to idling
system.cpu.committedInsts                     2993062                       # Number of Instructions Simulated
system.cpu.committedOps                       4881169                       # Number of Ops (including micro ops) Simulated
system.cpu.cpi                               0.890689                       # CPI: Cycles Per Instruction
system.cpu.cpi_total                         0.890689                       # CPI: Total CPI of All Threads
system.cpu.ipc                               1.122727                       # IPC: Instructions Per Cycle
system.cpu.ipc_total                         1.122727                       # IPC: Total IPC of All Threads
system.cpu.int_regfile_reads                 10216188                       # number of integer regfile reads
system.cpu.int_regfile_writes                 6215670                       # number of integer regfile writes
system.cpu.fp_regfile_reads                     48400                       # number of floating regfile reads
system.cpu.fp_regfile_writes                    46099                       # number of floating regfile writes
system.cpu.cc_regfile_reads                   3562754                       # number of cc regfile reads
system.cpu.cc_regfile_writes                  3229467                       # number of cc regfile writes
system.cpu.misc_regfile_reads                 2649777                       # number of misc regfile reads
system.cpu.dcache.tags.pwrStateResidencyTicks::UNDEFINED   2665885000                       # Cumulative time (in ticks) in various power states
system.cpu.dcache.tags.tagsinuse           982.701292                       # Cycle average of tags in use
system.cpu.dcache.tags.total_refs              834753                       # Total number of references to valid blocks.
system.cpu.dcache.tags.sampled_refs              3411                       # Sample count of references to valid blocks.
system.cpu.dcache.tags.avg_refs            244.723835                       # Average number of references to valid blocks.
system.cpu.dcache.tags.warmup_cycle            227000                       # Cycle when the warmup percentage was hit.
system.cpu.dcache.tags.occ_blocks::.cpu.data   982.701292                       # Average occupied blocks per requestor
system.cpu.dcache.tags.occ_percent::.cpu.data     0.959669                       # Average percentage of cache occupancy
system.cpu.dcache.tags.occ_percent::total     0.959669                       # Average percentage of cache occupancy
system.cpu.dcache.tags.occ_task_id_blocks::1024         1024                       # Occupied blocks per task id
system.cpu.dcache.tags.age_task_id_blocks_1024::0           73                       # Occupied blocks per task id
system.cpu.dcache.tags.age_task_id_blocks_1024::1            3                       # Occupied blocks per task id
system.cpu.dcache.tags.age_task_id_blocks_1024::2          318                       # Occupied blocks per task id
system.cpu.dcache.tags.age_task_id_blocks_1024::3          630                       # Occupied blocks per task id
system.cpu.dcache.tags.occ_task_id_percent::1024            1                       # Percentage of cache occupancy per task id
system.cpu.dcache.tags.tag_accesses           1683615                       # Number of tag accesses
system.cpu.dcache.tags.data_accesses          1683615                       # Number of data accesses
system.cpu.dcache.pwrStateResidencyTicks::UNDEFINED   2665885000                       # Cumulative time (in ticks) in various power states
system.cpu.dcache.ReadReq_hits::.cpu.data       524190                       # number of ReadReq hits
system.cpu.dcache.ReadReq_hits::total          524190                       # number of ReadReq hits
system.cpu.dcache.WriteReq_hits::.cpu.data       307152                       # number of WriteReq hits
system.cpu.dcache.WriteReq_hits::total         307152                       # number of WriteReq hits
system.cpu.dcache.demand_hits::.cpu.data       831342                       # number of demand (read+write) hits
system.cpu.dcache.demand_hits::total           831342                       # number of demand (read+write) hits
system.cpu.dcache.overall_hits::.cpu.data       831342                       # number of overall hits
system.cpu.dcache.overall_hits::total          831342                       # number of overall hits
system.cpu.dcache.ReadReq_misses::.cpu.data         7374                       # number of ReadReq misses
system.cpu.dcache.ReadReq_misses::total          7374                       # number of ReadReq misses
system.cpu.dcache.WriteReq_misses::.cpu.data         1386                       # number of WriteReq misses
system.cpu.dcache.WriteReq_misses::total         1386                       # number of WriteReq misses
system.cpu.dcache.demand_misses::.cpu.data         8760                       # number of demand (read+write) misses
system.cpu.dcache.demand_misses::total           8760                       # number of demand (read+write) misses
system.cpu.dcache.overall_misses::.cpu.data         8760                       # number of overall misses
system.cpu.dcache.overall_misses::total          8760                       # number of overall misses
system.cpu.dcache.ReadReq_miss_latency::.cpu.data    597870000                       # number of ReadReq miss cycles
system.cpu.dcache.ReadReq_miss_latency::total    597870000                       # number of ReadReq miss cycles
system.cpu.dcache.WriteReq_miss_latency::.cpu.data    123477000                       # number of WriteReq miss cycles
system.cpu.dcache.WriteReq_miss_latency::total    123477000                       # number of WriteReq miss cycles
system.cpu.dcache.demand_miss_latency::.cpu.data    721347000                       # number of demand (read+write) miss cycles
system.cpu.dcache.demand_miss_latency::total    721347000                       # number of demand (read+write) miss cycles
system.cpu.dcache.overall_miss_latency::.cpu.data    721347000                       # number of overall miss cycles
system.cpu.dcache.overall_miss_latency::total    721347000                       # number of overall miss cycles
system.cpu.dcache.ReadReq_accesses::.cpu.data       531564                       # number of ReadReq accesses(hits+misses)
system.cpu.dcache.ReadReq_accesses::total       531564                       # number of ReadReq accesses(hits+misses)
[...]
system.l2.WritebackClean_accesses::total          105                       # number of WritebackClean accesses(hits+misses)
system.l2.ReadExReq_accesses::.cpu.data          1380                       # number of ReadExReq accesses(hits+misses)
system.l2.ReadExReq_accesses::total              1380                       # number of ReadExReq accesses(hits+misses)
system.l2.ReadCleanReq_accesses::.cpu.inst          844                       # number of ReadCleanReq accesses(hits+misses)
system.l2.ReadCleanReq_accesses::total            844                       # number of ReadCleanReq accesses(hits+misses)
system.l2.ReadSharedReq_accesses::.cpu.data         2031                       # number of ReadSharedReq accesses(hits+misses)
system.l2.ReadSharedReq_accesses::total          2031                       # number of ReadSharedReq accesses(hits+misses)
system.l2.demand_accesses::.cpu.inst              844                       # number of demand (read+write) accesses
system.l2.demand_accesses::.cpu.data             3411                       # number of demand (read+write) accesses
system.l2.demand_accesses::total                 4255                       # number of demand (read+write) accesses
system.l2.overall_accesses::.cpu.inst             844                       # number of overall (read+write) accesses
system.l2.overall_accesses::.cpu.data            3411                       # number of overall (read+write) accesses
system.l2.overall_accesses::total                4255                       # number of overall (read+write) accesses
system.l2.ReadExReq_miss_rate::.cpu.data     0.670290                       # miss rate for ReadExReq accesses
system.l2.ReadExReq_miss_rate::total         0.670290                       # miss rate for ReadExReq accesses
system.l2.ReadCleanReq_miss_rate::.cpu.inst     0.985782                       # miss rate for ReadCleanReq accesses
system.l2.ReadCleanReq_miss_rate::total      0.985782                       # miss rate for ReadCleanReq accesses
system.l2.ReadSharedReq_miss_rate::.cpu.data     0.777450                       # miss rate for ReadSharedReq accesses
system.l2.ReadSharedReq_miss_rate::total     0.777450                       # miss rate for ReadSharedReq accesses
system.l2.demand_miss_rate::.cpu.inst        0.985782                       # miss rate for demand accesses
system.l2.demand_miss_rate::.cpu.data        0.734096                       # miss rate for demand accesses
system.l2.demand_miss_rate::total            0.784019                       # miss rate for demand accesses
system.l2.overall_miss_rate::.cpu.inst       0.985782                       # miss rate for overall accesses
system.l2.overall_miss_rate::.cpu.data       0.734096                       # miss rate for overall accesses
system.l2.overall_miss_rate::total           0.784019                       # miss rate for overall accesses
system.l2.ReadExReq_avg_miss_latency::.cpu.data 115237.837838                       # average ReadExReq miss latency
system.l2.ReadExReq_avg_miss_latency::total 115237.837838                       # average ReadExReq miss latency
system.l2.ReadCleanReq_avg_miss_latency::.cpu.inst 106131.009615                       # average ReadCleanReq miss latency
system.l2.ReadCleanReq_avg_miss_latency::total 106131.009615                       # average ReadCleanReq miss latency
system.l2.ReadSharedReq_avg_miss_latency::.cpu.data 108934.768841                       # average ReadSharedReq miss latency
system.l2.ReadSharedReq_avg_miss_latency::total 108934.768841                       # average ReadSharedReq miss latency
system.l2.demand_avg_miss_latency::.cpu.inst 106131.009615                       # average overall miss latency
system.l2.demand_avg_miss_latency::.cpu.data 111263.178914                       # average overall miss latency
system.l2.demand_avg_miss_latency::total 109983.213429                       # average overall miss latency
system.l2.overall_avg_miss_latency::.cpu.inst 106131.009615                       # average overall miss latency
system.l2.overall_avg_miss_latency::.cpu.data 111263.178914                       # average overall miss latency
system.l2.overall_avg_miss_latency::total 109983.213429                       # average overall miss latency
system.l2.blocked_cycles::no_mshrs                  0                       # number of cycles access was blocked
system.l2.blocked_cycles::no_targets                0                       # number of cycles access was blocked
system.l2.blocked::no_mshrs                         0                       # number of cycles access was blocked
system.l2.blocked::no_targets                       0                       # number of cycles access was blocked
system.l2.avg_blocked_cycles::no_mshrs            nan                       # average number of cycles each access was blocked
system.l2.avg_blocked_cycles::no_targets          nan                       # average number of cycles each access was blocked
system.l2.ReadExReq_mshr_misses::.cpu.data          925                       # number of ReadExReq MSHR misses
system.l2.ReadExReq_mshr_misses::total            925                       # number of ReadExReq MSHR misses
system.l2.ReadCleanReq_mshr_misses::.cpu.inst          832                       # number of ReadCleanReq MSHR misses
system.l2.ReadCleanReq_mshr_misses::total          832                       # number of ReadCleanReq MSHR misses
system.l2.ReadSharedReq_mshr_misses::.cpu.data         1579                       # number of ReadSharedReq MSHR misses
system.l2.ReadSharedReq_mshr_misses::total         1579                       # number of ReadSharedReq MSHR misses
system.l2.demand_mshr_misses::.cpu.inst           832                       # number of demand (read+write) MSHR misses
system.l2.demand_mshr_misses::.cpu.data          2504                       # number of demand (read+write) MSHR misses
system.l2.demand_mshr_misses::total              3336                       # number of demand (read+write) MSHR misses
system.l2.overall_mshr_misses::.cpu.inst          832                       # number of overall MSHR misses
system.l2.overall_mshr_misses::.cpu.data         2504                       # number of overall MSHR misses
system.l2.overall_mshr_misses::total             3336                       # number of overall MSHR misses
system.l2.ReadExReq_mshr_miss_latency::.cpu.data     88095000                       # number of ReadExReq MSHR miss cycles
system.l2.ReadExReq_mshr_miss_latency::total     88095000                       # number of ReadExReq MSHR miss cycles
system.l2.ReadCleanReq_mshr_miss_latency::.cpu.inst     71661000                       # number of ReadCleanReq MSHR miss cycles
system.l2.ReadCleanReq_mshr_miss_latency::total     71661000                       # number of ReadCleanReq MSHR miss cycles
system.l2.ReadSharedReq_mshr_miss_latency::.cpu.data    140428000                       # number of ReadSharedReq MSHR miss cycles
system.l2.ReadSharedReq_mshr_miss_latency::total    140428000                       # number of ReadSharedReq MSHR miss cycles
system.l2.demand_mshr_miss_latency::.cpu.inst     71661000                       # number of demand (read+write) MSHR miss cycles
system.l2.demand_mshr_miss_latency::.cpu.data    228523000                       # number of demand (read+write) MSHR miss cycles
system.l2.demand_mshr_miss_latency::total    300184000                       # number of demand (read+write) MSHR miss cycles
system.l2.overall_mshr_miss_latency::.cpu.inst     71661000                       # number of overall MSHR miss cycles
system.l2.overall_mshr_miss_latency::.cpu.data    228523000                       # number of overall MSHR miss cycles
system.l2.overall_mshr_miss_latency::total    300184000                       # number of overall MSHR miss cycles
system.l2.ReadExReq_mshr_miss_rate::.cpu.data     0.670290                       # mshr miss rate for ReadExReq accesses
system.l2.ReadExReq_mshr_miss_rate::total     0.670290                       # mshr miss rate for ReadExReq accesses
system.l2.ReadCleanReq_mshr_miss_rate::.cpu.inst     0.985782                       # mshr miss rate for ReadCleanReq accesses
system.l2.ReadCleanReq_mshr_miss_rate::total     0.985782                       # mshr miss rate for ReadCleanReq accesses
system.l2.ReadSharedReq_mshr_miss_rate::.cpu.data     0.777450                       # mshr miss rate for ReadSharedReq accesses
system.l2.ReadSharedReq_mshr_miss_rate::total     0.777450                       # mshr miss rate for ReadSharedReq accesses
system.l2.demand_mshr_miss_rate::.cpu.inst     0.985782                       # mshr miss rate for demand accesses
system.l2.demand_mshr_miss_rate::.cpu.data     0.734096                       # mshr miss rate for demand accesses
system.l2.demand_mshr_miss_rate::total       0.784019                       # mshr miss rate for demand accesses
system.l2.overall_mshr_miss_rate::.cpu.inst     0.985782                       # mshr miss rate for overall accesses
system.l2.overall_mshr_miss_rate::.cpu.data     0.734096                       # mshr miss rate for overall accesses
system.l2.overall_mshr_miss_rate::total      0.784019                       # mshr miss rate for overall accesses
system.l2.ReadExReq_avg_mshr_miss_latency::.cpu.data 95237.837838                       # average ReadExReq mshr miss latency
system.l2.ReadExReq_avg_mshr_miss_latency::total 95237.837838                       # average ReadExReq mshr miss latency
system.l2.ReadCleanReq_avg_mshr_miss_latency::.cpu.inst 86131.009615                       # average ReadCleanReq mshr miss latency
system.l2.ReadCleanReq_avg_mshr_miss_latency::total 86131.009615                       # average ReadCleanReq mshr miss latency
system.l2.ReadSharedReq_avg_mshr_miss_latency::.cpu.data 88934.768841                       # average ReadSharedReq mshr miss latency
system.l2.ReadSharedReq_avg_mshr_miss_latency::total 88934.768841                       # average ReadSharedReq mshr miss latency
system.l2.demand_avg_mshr_miss_latency::.cpu.inst 86131.009615                       # average overall mshr miss latency
system.l2.demand_avg_mshr_miss_latency::.cpu.data 91263.178914                       # average overall mshr miss latency
system.l2.demand_avg_mshr_miss_latency::total 89983.213429                       # average overall mshr miss latency
system.l2.overall_avg_mshr_miss_latency::.cpu.inst 86131.009615                       # average overall mshr miss latency
system.l2.overall_avg_mshr_miss_latency::.cpu.data 91263.178914                       # average overall mshr miss latency
system.l2.overall_avg_mshr_miss_latency::total 89983.213429                       # average overall mshr miss latency
system.l2.replacements                              0                       # number of replacements
system.membus.snoop_filter.tot_requests          3336                       # Total number of requests made to the snoop filter.
system.membus.snoop_filter.hit_single_requests            0                       # Number of requests hitting in the snoop filter with a single holder of the requested data.
system.membus.snoop_filter.hit_multi_requests            0                       # Number of requests hitting in the snoop filter with multiple (>1) holders of the requested data.
system.membus.snoop_filter.tot_snoops               0                       # Total number of snoops made to the snoop filter.
system.membus.snoop_filter.hit_single_snoops            0                       # Number of snoops hitting in the snoop filter with a single holder of the requested data.
system.membus.snoop_filter.hit_multi_snoops            0                       # Number of snoops hitting in the snoop filter with multiple (>1) holders of the requested data.
system.membus.pwrStateResidencyTicks::UNDEFINED   2665885000                       # Cumulative time (in ticks) in various power states
system.membus.trans_dist::ReadResp               2411                       # Transaction distribution
system.membus.trans_dist::ReadExReq               925                       # Transaction distribution
system.membus.trans_dist::ReadExResp              925                       # Transaction distribution
system.membus.trans_dist::ReadSharedReq          2411                       # Transaction distribution
system.membus.pkt_count_system.l2.mem_side::system.mem_ctrls.port         6672                       # Packet count per connected master and slave (bytes)
system.membus.pkt_count_system.l2.mem_side::total         6672                       # Packet count per connected master and slave (bytes)
system.membus.pkt_count::total                   6672                       # Packet count per connected master and slave (bytes)
system.membus.pkt_size_system.l2.mem_side::system.mem_ctrls.port       213504                       # Cumulative packet size per connected master and slave (bytes)
system.membus.pkt_size_system.l2.mem_side::total       213504                       # Cumulative packet size per connected master and slave (bytes)
system.membus.pkt_size::total                  213504                       # Cumulative packet size per connected master and slave (bytes)
system.membus.snoops                                0                       # Total snoops (count)
system.membus.snoopTraffic                          0                       # Total snoop traffic (bytes)
system.membus.snoop_fanout::samples              3336                       # Request fanout histogram
system.membus.snoop_fanout::mean                    0                       # Request fanout histogram
system.membus.snoop_fanout::stdev                   0                       # Request fanout histogram
system.membus.snoop_fanout::underflows              0      0.00%      0.00% # Request fanout histogram
system.membus.snoop_fanout::0                    3336    100.00%    100.00% # Request fanout histogram
system.membus.snoop_fanout::1                       0      0.00%    100.00% # Request fanout histogram
system.membus.snoop_fanout::overflows               0      0.00%    100.00% # Request fanout histogram
system.membus.snoop_fanout::min_value               0                       # Request fanout histogram
system.membus.snoop_fanout::max_value               0                       # Request fanout histogram
system.membus.snoop_fanout::total                3336                       # Request fanout histogram
system.membus.reqLayer2.occupancy             3336000                       # Layer occupancy (ticks)
system.membus.reqLayer2.utilization               0.1                       # Layer utilization (%)
system.membus.respLayer1.occupancy           17721000                       # Layer occupancy (ticks)
system.membus.respLayer1.utilization              0.7                       # Layer utilization (%)
system.tol2bus.snoop_filter.tot_requests         6750                       # Total number of requests made to the snoop filter.
system.tol2bus.snoop_filter.hit_single_requests         2495                       # Number of requests hitting in the snoop filter with a single holder of the requested data.
system.tol2bus.snoop_filter.hit_multi_requests           10                       # Number of requests hitting in the snoop filter with multiple (>1) holders of the requested data.
system.tol2bus.snoop_filter.tot_snoops              0                       # Total number of snoops made to the snoop filter.
system.tol2bus.snoop_filter.hit_single_snoops            0                       # Number of snoops hitting in the snoop filter with a single holder of the requested data.
system.tol2bus.snoop_filter.hit_multi_snoops            0                       # Number of snoops hitting in the snoop filter with multiple (>1) holders of the requested data.
system.tol2bus.pwrStateResidencyTicks::UNDEFINED   2665885000                       # Cumulative time (in ticks) in various power states
system.tol2bus.trans_dist::ReadResp              2875                       # Transaction distribution
system.tol2bus.trans_dist::WritebackDirty         1178                       # Transaction distribution
system.tol2bus.trans_dist::WritebackClean          108                       # Transaction distribution
system.tol2bus.trans_dist::CleanEvict            1209                       # Transaction distribution
system.tol2bus.trans_dist::ReadExReq             1380                       # Transaction distribution
system.tol2bus.trans_dist::ReadExResp            1380                       # Transaction distribution
system.tol2bus.trans_dist::ReadCleanReq           844                       # Transaction distribution
system.tol2bus.trans_dist::ReadSharedReq         2031                       # Transaction distribution
system.tol2bus.pkt_count_system.cpu.icache.mem_side::system.l2.cpu_side         1796                       # Packet count per connected master and slave (bytes)
system.tol2bus.pkt_count_system.cpu.dcache.mem_side::system.l2.cpu_side         9209                       # Packet count per connected master and slave (bytes)
system.tol2bus.pkt_count::total                 11005                       # Packet count per connected master and slave (bytes)
system.tol2bus.pkt_size_system.cpu.icache.mem_side::system.l2.cpu_side        60928                       # Cumulative packet size per connected master and slave (bytes)
system.tol2bus.pkt_size_system.cpu.dcache.mem_side::system.l2.cpu_side       293696                       # Cumulative packet size per connected master and slave (bytes)
system.tol2bus.pkt_size::total                 354624                       # Cumulative packet size per connected master and slave (bytes)
system.tol2bus.snoops                               0                       # Total snoops (count)
system.tol2bus.snoopTraffic                         0                       # Total snoop traffic (bytes)
system.tol2bus.snoop_fanout::samples             4255                       # Request fanout histogram
system.tol2bus.snoop_fanout::mean            0.002350                       # Request fanout histogram
system.tol2bus.snoop_fanout::stdev           0.048427                       # Request fanout histogram
system.tol2bus.snoop_fanout::underflows             0      0.00%      0.00% # Request fanout histogram
system.tol2bus.snoop_fanout::0                   4245     99.76%     99.76% # Request fanout histogram
system.tol2bus.snoop_fanout::1                     10      0.24%    100.00% # Request fanout histogram
system.tol2bus.snoop_fanout::2                      0      0.00%    100.00% # Request fanout histogram
system.tol2bus.snoop_fanout::3                      0      0.00%    100.00% # Request fanout histogram
system.tol2bus.snoop_fanout::4                      0      0.00%    100.00% # Request fanout histogram
system.tol2bus.snoop_fanout::overflows              0      0.00%    100.00% # Request fanout histogram
system.tol2bus.snoop_fanout::min_value              0                       # Request fanout histogram
system.tol2bus.snoop_fanout::max_value              1                       # Request fanout histogram
system.tol2bus.snoop_fanout::total               4255                       # Request fanout histogram
system.tol2bus.reqLayer0.occupancy            9322000                       # Layer occupancy (ticks)
system.tol2bus.reqLayer0.utilization              0.3                       # Layer utilization (%)
system.tol2bus.respLayer0.occupancy           2532999                       # Layer occupancy (ticks)
system.tol2bus.respLayer0.utilization             0.1                       # Layer utilization (%)
system.tol2bus.respLayer1.occupancy          10233000                       # Layer occupancy (ticks)
system.tol2bus.respLayer1.utilization             0.4                       # Layer utilization (%)

---------- End Simulation Statistics   ----------
