
---------- Begin Simulation Statistics ----------
sim_seconds                                  0.006085                       # Number of seconds simulated
sim_ticks                                  6084812000                       # Number of ticks simulated
final_tick                                 6084812000                       # Number of ticks from beginning of simulation (restored from checkpoints and never reset)
sim_freq                                 1000000000000                       # Frequency of simulated ticks
host_inst_rate                                 107551                       # Simulator instruction rate (inst/s)
host_op_rate                                   175396                       # Simulator op (including micro ops) rate (op/s)
host_tick_rate                              218653559                       # Simulator tick rate (ticks/s)
host_mem_usage                                 670892                       # Number of bytes of host memory used
host_seconds                                    27.83                       # Real time elapsed on the host
sim_insts                                     2992997                       # Number of instructions simulated
sim_ops                                       4881026                       # Number of ops (including micro ops) simulated
system.voltage_domain.voltage                       1                       # Voltage in Volts
system.clk_domain.clock                          1000                       # Clock period in ticks
system.mem_ctrls.pwrStateResidencyTicks::UNDEFINED   6084812000                       # Cumulative time (in ticks) in various power states
system.mem_ctrls.bytes_read::.cpu.inst          56448                       # Number of bytes read from this memory
system.mem_ctrls.bytes_read::.cpu.data         156736                       # Number of bytes read from this memory
system.mem_ctrls.bytes_read::total             213184                       # Number of bytes read from this memory
system.mem_ctrls.bytes_inst_read::.cpu.inst        56448                       # Number of instructions bytes read from this memory
system.mem_ctrls.bytes_inst_read::total         56448                       # Number of instructions bytes read from this memory
system.mem_ctrls.num_reads::.cpu.inst             882                       # Number of read requests responded to by this memory
system.mem_ctrls.num_reads::.cpu.data            2449                       # Number of read requests responded to by this memory
system.mem_ctrls.num_reads::total                3331                       # Number of read requests responded to by this memory
system.mem_ctrls.bw_read::.cpu.inst           9276868                       # Total read bandwidth from this memory (bytes/s)
system.mem_ctrls.bw_read::.cpu.data          25758561                       # Total read bandwidth from this memory (bytes/s)
system.mem_ctrls.bw_read::total              35035429                       # Total read bandwidth from this memory (bytes/s)
system.mem_ctrls.bw_inst_read::.cpu.inst      9276868                       # Instruction read bandwidth from this memory (bytes/s)
system.mem_ctrls.bw_inst_read::total          9276868                       # Instruction read bandwidth from this memory (bytes/s)
system.mem_ctrls.bw_total::.cpu.inst          9276868                       # Total bandwidth to/from this memory (bytes/s)
system.mem_ctrls.bw_total::.cpu.data         25758561                       # Total bandwidth to/from this memory (bytes/s)
system.mem_ctrls.bw_total::total             35035429                       # Total bandwidth to/from this memory (bytes/s)
system.mem_ctrls.avgPriority_.cpu.inst::samples      1764.00                       # Average QoS priority value for accepted requests
system.mem_ctrls.avgPriority_.cpu.data::samples      4898.00                       # Average QoS priority value for accepted requests
system.mem_ctrls.priorityMinLatency      0.000000019000                       # per QoS priority minimum request to response latency (s)
system.mem_ctrls.priorityMaxLatency      0.000000701000                       # per QoS priority maximum request to response latency (s)
system.mem_ctrls.numReadWriteTurnArounds            0                       # Number of turnarounds from READ to WRITE
system.mem_ctrls.numWriteReadTurnArounds            0                       # Number of turnarounds from WRITE to READ
system.mem_ctrls.numStayReadState               10984                       # Number of times bus staying in READ state
system.mem_ctrls.numStayWriteState                  0                       # Number of times bus staying in WRITE state
system.mem_ctrls.readReqs                        3331                       # Number of read requests accepted
system.mem_ctrls.writeReqs                          0                       # Number of write requests accepted
system.mem_ctrls.readBursts                      6662                       # Number of DRAM read bursts, including those serviced by the write queue
system.mem_ctrls.writeBursts                        0                       # Number of DRAM write bursts, including those merged in the write queue
system.mem_ctrls.bytesReadDRAM                 213184                       # Total number of bytes read from DRAM
system.mem_ctrls.bytesReadWrQ                       0                       # Total number of bytes read from write queue
system.mem_ctrls.bytesWritten                       0                       # Total number of bytes written to DRAM
system.mem_ctrls.bytesReadSys                  213184                       # Total read bytes from the system interface side
system.mem_ctrls.bytesWrittenSys                    0                       # Total written bytes from the system interface side
system.mem_ctrls.servicedByWrQ                      0                       # Number of DRAM read bursts serviced by the write queue
system.mem_ctrls.mergedWrBursts                     0                       # Number of DRAM write bursts merged with an existing one
system.mem_ctrls.neitherReadNorWriteReqs            0                       # Number of requests that are neither read nor write
system.mem_ctrls.perBankRdBursts::0               408                       # Per bank write bursts
system.mem_ctrls.perBankRdBursts::1               498                       # Per bank write bursts
system.mem_ctrls.perBankRdBursts::2               464                       # Per bank write bursts
system.mem_ctrls.perBankRdBursts::3               424                       # Per bank write bursts
system.mem_ctrls.perBankRdBursts::4               358                       # Per bank write bursts
system.mem_ctrls.perBankRdBursts::5               370                       # Per bank write bursts
system.mem_ctrls.perBankRdBursts::6               384                       # Per bank write bursts
system.mem_ctrls.perBankRdBursts::7               438                       # Per bank write bursts
system.mem_ctrls.perBankRdBursts::8               432                       # Per bank write bursts
system.mem_ctrls.perBankRdBursts::9               440                       # Per bank write bursts
system.mem_ctrls.perBankRdBursts::10              418                       # Per bank write bursts
system.mem_ctrls.perBankRdBursts::11              440                       # Per bank write bursts
system.mem_ctrls.perBankRdBursts::12              378                       # Per bank write bursts
system.mem_ctrls.perBankRdBursts::13              400                       # Per bank write bursts
system.mem_ctrls.perBankRdBursts::14              410                       # Per bank write bursts
system.mem_ctrls.perBankRdBursts::15              400                       # Per bank write bursts
system.mem_ctrls.perBankWrBursts::0                 0                       # Per bank write bursts
system.mem_ctrls.perBankWrBursts::1                 0                       # Per bank write bursts
system.mem_ctrls.perBankWrBursts::2                 0                       # Per bank write bursts
system.mem_ctrls.perBankWrBursts::3                 0                       # Per bank write bursts
system.mem_ctrls.perBankWrBursts::4                 0                       # Per bank write bursts
system.mem_ctrls.perBankWrBursts::5                 0                       # Per bank write bursts
system.mem_ctrls.perBankWrBursts::6                 0                       # Per bank write bursts
system.mem_ctrls.perBankWrBursts::7                 0                       # Per bank write bursts
system.mem_ctrls.perBankWrBursts::8                 0                       # Per bank write bursts
system.mem_ctrls.perBankWrBursts::9                 0                       # Per bank write bursts
system.mem_ctrls.perBankWrBursts::10                0                       # Per bank write bursts
system.mem_ctrls.perBankWrBursts::11                0                       # Per bank write bursts
system.mem_ctrls.perBankWrBursts::12                0                       # Per bank write bursts
system.mem_ctrls.perBankWrBursts::13                0                       # Per bank write bursts
system.mem_ctrls.perBankWrBursts::14                0                       # Per bank write bursts
system.mem_ctrls.perBankWrBursts::15                0                       # Per bank write bursts
system.mem_ctrls.numRdRetry                         0                       # Number of times read queue was full causing retry
system.mem_ctrls.numWrRetry                         0                       # Number of times write queue was full causing retry
system.mem_ctrls.totGap                    6084690000                       # Total gap between requests
system.mem_ctrls.readPktSize::0                     0                       # Read request sizes (log2)
system.mem_ctrls.readPktSize::1                     0                       # Read request sizes (log2)
system.mem_ctrls.readPktSize::2                     0                       # Read request sizes (log2)
system.mem_ctrls.readPktSize::3                     0                       # Read request sizes (log2)
system.mem_ctrls.readPktSize::4                     0                       # Read request sizes (log2)
system.mem_ctrls.readPktSize::5                  6662                       # Read request sizes (log2)
system.mem_ctrls.writePktSize::0                    0                       # Write request sizes (log2)
system.mem_ctrls.writePktSize::1                    0                       # Write request sizes (log2)
system.mem_ctrls.writePktSize::2                    0                       # Write request sizes (log2)
system.mem_ctrls.writePktSize::3                    0                       # Write request sizes (log2)
system.mem_ctrls.writePktSize::4                    0                       # Write request sizes (log2)
system.mem_ctrls.writePktSize::5                    0                       # Write request sizes (log2)
system.mem_ctrls.rdQLenPdf::0                    3098                       # What read queue length does an incoming req see
system.mem_ctrls.rdQLenPdf::1                    3101                       # What read queue length does an incoming req see
system.mem_ctrls.rdQLenPdf::2                     221                       # What read queue length does an incoming req see
system.mem_ctrls.rdQLenPdf::3                     218                       # What read queue length does an incoming req see
system.mem_ctrls.rdQLenPdf::4                      12                       # What read queue length does an incoming req see
system.mem_ctrls.rdQLenPdf::5                      12                       # What read queue length does an incoming req see
system.mem_ctrls.rdQLenPdf::6                       0                       # What read queue length does an incoming req see
system.mem_ctrls.rdQLenPdf::7                       0                       # What read queue length does an incoming req see
system.mem_ctrls.rdQLenPdf::8                       0                       # What read queue length does an incoming req see
system.mem_ctrls.rdQLenPdf::9                       0                       # What read queue length does an incoming req see
system.mem_ctrls.rdQLenPdf::10                      0                       # What read queue length does an incoming req see
system.mem_ctrls.rdQLenPdf::11                      0                       # What read queue length does an incoming req see
system.mem_ctrls.rdQLenPdf::12                      0                       # What read queue length does an incoming req see
system.mem_ctrls.rdQLenPdf::13                      0                       # What read queue length does an incoming req see
system.mem_ctrls.rdQLenPdf::14                      0                       # What read queue length does an incoming req see
system.mem_ctrls.rdQLenPdf::15                      0                       # What read queue length does an incoming req see
system.mem_ctrls.rdQLenPdf::16                      0                       # What read queue length does an incoming req see
system.mem_ctrls.rdQLenPdf::17                      0                       # What read queue length does an incoming req see
system.mem_ctrls.rdQLenPdf::18                      0                       # What read queue length does an incoming req see
system.mem_ctrls.rdQLenPdf::19                      0                       # What read queue length does an incoming req see
system.mem_ctrls.rdQLenPdf::20                      0                       # What read queue length does an incoming req see
system.mem_ctrls.rdQLenPdf::21                      0                       # What read queue length does an incoming req see
system.mem_ctrls.rdQLenPdf::22                      0                       # What read queue length does an incoming req see
system.mem_ctrls.rdQLenPdf::23                      0                       # What read queue length does an incoming req see
system.mem_ctrls.rdQLenPdf::24                      0                       # What read queue length does an incoming req see
system.mem_ctrls.rdQLenPdf::25                      0                       # What read queue length does an incoming req see
system.mem_ctrls.rdQLenPdf::26                      0                       # What read queue length does an incoming req see
system.mem_ctrls.rdQLenPdf::27                      0                       # What read queue length does an incoming req see
system.mem_ctrls.rdQLenPdf::28                      0                       # What read queue length does an incoming req see
system.mem_ctrls.rdQLenPdf::29                      0                       # What read queue length does an incoming req see
system.mem_ctrls.rdQLenPdf::30                      0                       # What read queue length does an incoming req see
system.mem_ctrls.rdQLenPdf::31                      0                       # What read queue length does an incoming req see
system.mem_ctrls.wrQLenPdf::0                       0                       # What write queue length does an incoming req see
system.mem_ctrls.wrQLenPdf::1                       0                       # What write queue length does an incoming req see
system.mem_ctrls.wrQLenPdf::2                       0                       # What write queue length does an incoming req see
system.mem_ctrls.wrQLenPdf::3                       0                       # What write queue length does an incoming req see
system.mem_ctrls.wrQLenPdf::4                       0                       # What write queue length does an incoming req see
system.mem_ctrls.wrQLenPdf::5                       0                       # What write queue length does an incoming req see
system.mem_ctrls.wrQLenPdf::6                       0                       # What write queue length does an incoming req see
system.mem_ctrls.wrQLenPdf::7                       0                       # What write queue length does an incoming req see
system.mem_ctrls.wrQLenPdf::8                       0                       # What write queue length does an incoming req see
system.mem_ctrls.wrQLenPdf::9                       0                       # What write queue length does an incoming req see
system.mem_ctrls.wrQLenPdf::10                      0                       # What write queue length does an incoming req see
system.mem_ctrls.wrQLenPdf::11                      0                       # What write queue length does an incoming req see
system.mem_ctrls.wrQLenPdf::12                      0                       # What write queue length does an incoming req see
system.mem_ctrls.wrQLenPdf::13                      0                       # What write queue length does an incoming req see
system.mem_ctrls.wrQLenPdf::14                      0                       # What write queue length does an incoming req see
system.mem_ctrls.wrQLenPdf::15                      0                       # What write queue length does an incoming req see
system.mem_ctrls.wrQLenPdf::16                      0                       # What write queue length does an incoming req see
system.mem_ctrls.wrQLenPdf::17                      0                       # What write queue length does an incoming req see
system.mem_ctrls.wrQLenPdf::18                      0                       # What write queue length does an incoming req see
system.mem_ctrls.wrQLenPdf::19                      0                       # What write queue length does an incoming req see
system.mem_ctrls.wrQLenPdf::20                      0                       # What write queue length does an incoming req see
system.mem_ctrls.wrQLenPdf::21                      0                       # What write queue length does an incoming req see
system.mem_ctrls.wrQLenPdf::22                      0                       # What write queue length does an incoming req see
system.mem_ctrls.wrQLenPdf::23                      0                       # What write queue length does an incoming req see
system.mem_ctrls.wrQLenPdf::24                      0                       # What write queue length does an incoming req see
system.mem_ctrls.wrQLenPdf::25                      0                       # What write queue length does an incoming req see
system.mem_ctrls.wrQLenPdf::26                      0                       # What write queue length does an incoming req see
system.mem_ctrls.wrQLenPdf::27                      0                       # What write queue length does an incoming req see
system.mem_ctrls.wrQLenPdf::28                      0                       # What write queue length does an incoming req see
system.mem_ctrls.wrQLenPdf::29                      0                       # What write queue length does an incoming req see
system.mem_ctrls.wrQLenPdf::30                      0                       # What write queue length does an incoming req see
system.mem_ctrls.wrQLenPdf::31                      0                       # What write queue length does an incoming req see
system.mem_ctrls.wrQLenPdf::32                      0                       # What write queue length does an incoming req see
system.mem_ctrls.wrQLenPdf::33                      0                       # What write queue length does an incoming req see
system.mem_ctrls.wrQLenPdf::34                      0                       # What write queue length does an incoming req see
system.mem_ctrls.wrQLenPdf::35                      0                       # What write queue length does an incoming req see
system.mem_ctrls.wrQLenPdf::36                      0                       # What write queue length does an incoming req see
system.mem_ctrls.wrQLenPdf::37                      0                       # What write queue length does an incoming req see
system.mem_ctrls.wrQLenPdf::38                      0                       # What write queue length does an incoming req see
system.mem_ctrls.wrQLenPdf::39                      0                       # What write queue length does an incoming req see
system.mem_ctrls.wrQLenPdf::40                      0                       # What write queue length does an incoming req see
system.mem_ctrls.wrQLenPdf::41                      0                       # What write queue length does an incoming req see
system.mem_ctrls.wrQLenPdf::42                      0                       # What write queue length does an incoming req see
system.mem_ctrls.wrQLenPdf::43                      0                       # What write queue length does an incoming req see
system.mem_ctrls.wrQLenPdf::44                      0                       # What write queue length does an incoming req see
system.mem_ctrls.wrQLenPdf::45                      0                       # What write queue length does an incoming req see
system.mem_ctrls.wrQLenPdf::46                      0                       # What write queue length does an incoming req see
system.mem_ctrls.wrQLenPdf::47                      0                       # What write queue length does an incoming req see
system.mem_ctrls.wrQLenPdf::48                      0                       # What write queue length does an incoming req see
system.mem_ctrls.wrQLenPdf::49                      0                       # What write queue length does an incoming req see
system.mem_ctrls.wrQLenPdf::50                      0                       # What write queue length does an incoming req see
system.mem_ctrls.wrQLenPdf::51                      0                       # What write queue length does an incoming req see
system.mem_ctrls.wrQLenPdf::52                      0                       # What write queue length does an incoming req see
system.mem_ctrls.wrQLenPdf::53                      0                       # What write queue length does an incoming req see
system.mem_ctrls.wrQLenPdf::54                      0                       # What write queue length does an incoming req see
system.mem_ctrls.wrQLenPdf::55                      0                       # What write queue length does an incoming req see
system.mem_ctrls.wrQLenPdf::56                      0                       # What write queue length does an incoming req see
system.mem_ctrls.wrQLenPdf::57                      0                       # What write queue length does an incoming req see
system.mem_ctrls.wrQLenPdf::58                      0                       # What write queue length does an incoming req see
system.mem_ctrls.wrQLenPdf::59                      0                       # What write queue length does an incoming req see
system.mem_ctrls.wrQLenPdf::60                      0                       # What write queue length does an incoming req see
system.mem_ctrls.wrQLenPdf::61                      0                       # What write queue length does an incoming req see
system.mem_ctrls.wrQLenPdf::62                      0                       # What write queue length does an incoming req see
system.mem_ctrls.wrQLenPdf::63                      0                       # What write queue length does an incoming req see
system.mem_ctrls.bytesPerActivate::samples         1942                       # Bytes accessed per row activation
system.mem_ctrls.bytesPerActivate::mean    109.709578                       # Bytes accessed per row activation
system.mem_ctrls.bytesPerActivate::gmean    85.228861                       # Bytes accessed per row activation
system.mem_ctrls.bytesPerActivate::stdev   109.600982                       # Bytes accessed per row activation
system.mem_ctrls.bytesPerActivate::64-127         1519     78.22%     78.22% # Bytes accessed per row activation
system.mem_ctrls.bytesPerActivate::128-191          130      6.69%     84.91% # Bytes accessed per row activation
system.mem_ctrls.bytesPerActivate::192-255           87      4.48%     89.39% # Bytes accessed per row activation
system.mem_ctrls.bytesPerActivate::256-319           44      2.27%     91.66% # Bytes accessed per row activation
system.mem_ctrls.bytesPerActivate::320-383           32      1.65%     93.31% # Bytes accessed per row activation
system.mem_ctrls.bytesPerActivate::384-447           29      1.49%     94.80% # Bytes accessed per row activation
system.mem_ctrls.bytesPerActivate::448-511           29      1.49%     96.29% # Bytes accessed per row activation
system.mem_ctrls.bytesPerActivate::512-575           72      3.71%    100.00% # Bytes accessed per row activation
system.mem_ctrls.bytesPerActivate::total         1942                       # Bytes accessed per row activation
system.mem_ctrls.masterReadBytes::.cpu.inst        56448                       # Per-master bytes read from memory
system.mem_ctrls.masterReadBytes::.cpu.data       156736                       # Per-master bytes read from memory
system.mem_ctrls.masterReadRate::.cpu.inst 9276868.373254587874                       # Per-master bytes read from memory rate (Bytes/sec)
system.mem_ctrls.masterReadRate::.cpu.data 25758560.823243182153                       # Per-master bytes read from memory rate (Bytes/sec)
system.mem_ctrls.masterReadAccesses::.cpu.inst         1764                       # Per-master read serviced memory accesses
system.mem_ctrls.masterReadAccesses::.cpu.data         4898                       # Per-master read serviced memory accesses
system.mem_ctrls.masterReadTotalLat::.cpu.inst     77692000                       # Per-master read total memory access latency
system.mem_ctrls.masterReadTotalLat::.cpu.data    325794000                       # Per-master read total memory access latency
system.mem_ctrls.masterReadAvgLat::.cpu.inst     44043.08                       # Per-master read average memory access latency
system.mem_ctrls.masterReadAvgLat::.cpu.data     66515.72                       # Per-master read average memory access latency
system.mem_ctrls.totQLat                    276908000                       # Total ticks spent queuing
system.mem_ctrls.totMemAccLat               403486000                       # Total ticks spent from burst creation until serviced by the DRAM
system.mem_ctrls.totBusLat                   26648000                       # Total ticks spent in databus transfers
system.mem_ctrls.avgQLat                     41565.30                       # Average queueing delay per DRAM burst
system.mem_ctrls.avgBusLat                    4000.00                       # Average bus latency per DRAM burst
system.mem_ctrls.avgMemAccLat                60565.30                       # Average memory access latency per DRAM burst
system.mem_ctrls.avgRdBW                        35.04                       # Average DRAM read bandwidth in MiByte/s
system.mem_ctrls.avgWrBW                         0.00                       # Average achieved write bandwidth in MiByte/s
system.mem_ctrls.avgRdBWSys                     35.04                       # Average system read bandwidth in MiByte/s
system.mem_ctrls.avgWrBWSys                      0.00                       # Average system write bandwidth in MiByte/s
system.mem_ctrls.peakBW                       8000.00                       # Theoretical peak bandwidth in MiByte/s
system.mem_ctrls.busUtil                         0.44                       # Data bus utilization in percentage
system.mem_ctrls.busUtilRead                     0.44                       # Data bus utilization in percentage for reads
system.mem_ctrls.busUtilWrite                    0.00                       # Data bus utilization in percentage for writes
system.mem_ctrls.avgRdQLen                       2.01                       # Average read queue length when enqueuing
system.mem_ctrls.avgWrQLen                       0.00                       # Average write queue length when enqueuing
system.mem_ctrls.readRowHits                     4719                       # Number of row buffer hits during reads
system.mem_ctrls.writeRowHits                       0                       # Number of row buffer hits during writes
system.mem_ctrls.readRowHitRate                 70.83                       # Row buffer hit rate for reads
system.mem_ctrls.writeRowHitRate                  nan                       # Row buffer hit rate for writes
system.mem_ctrls.avgGap                    1826685.68                       # Average gap between requests
system.mem_ctrls.pageHitRate                    70.83                       # Row buffer hit rate, read and write combined
system.mem_ctrls_0.actEnergy                        0                       # Energy for activate commands per rank (pJ)
system.mem_ctrls_0.preEnergy                        0                       # Energy for precharge commands per rank (pJ)
system.mem_ctrls_0.readEnergy                       0                       # Energy for read commands per rank (pJ)
system.mem_ctrls_0.writeEnergy                      0                       # Energy for write commands per rank (pJ)
system.mem_ctrls_0.refreshEnergy                    0                       # Energy for refresh commands per rank (pJ)
system.mem_ctrls_0.actBackEnergy                    0                       # Energy for active background per rank (pJ)
system.mem_ctrls_0.preBackEnergy                    0                       # Energy for precharge background per rank (pJ)
system.mem_ctrls_0.actPowerDownEnergy               0                       # Energy for active power-down per rank (pJ)
system.mem_ctrls_0.prePowerDownEnergy               0                       # Energy for precharge power-down per rank (pJ)
system.mem_ctrls_0.selfRefreshEnergy                0                       # Energy for self refresh per rank (pJ)
system.mem_ctrls_0.totalEnergy                      0                       # Total energy per rank (pJ)
system.mem_ctrls_0.averagePower                     0                       # Core power per rank (mW)
system.mem_ctrls_0.totalIdleTime           5646091000                       # Total Idle time Per DRAM Rank
system.mem_ctrls_0.memoryStateTime::IDLE     18399000                       # Time in different power states
system.mem_ctrls_0.memoryStateTime::REF     262080000                       # Time in different power states
system.mem_ctrls_0.memoryStateTime::SREF   2158397000                       # Time in different power states
system.mem_ctrls_0.memoryStateTime::PRE_PDN   1214960500                       # Time in different power states
system.mem_ctrls_0.memoryStateTime::ACT     158177000                       # Time in different power states
system.mem_ctrls_0.memoryStateTime::ACT_PDN   2272798500                       # Time in different power states
system.pwrStateResidencyTicks::UNDEFINED   6084812000                       # Cumulative time (in ticks) in various power states
system.cpu.branchPred.lookups                      68                       # Number of BP lookups
system.cpu.branchPred.condPredicted                68                       # Number of conditional branches predicted
system.cpu.branchPred.condIncorrect                26                       # Number of conditional branches incorrect
system.cpu.branchPred.BTBLookups                   35                       # Number of BTB lookups
system.cpu.branchPred.BTBHits                       0                       # Number of BTB hits
system.cpu.branchPred.BTBCorrect                    0                       # Number of correct BTB predictions (this stat may not work properly.
system.cpu.branchPred.BTBHitPct              0.000000                       # BTB Hit Percentage
system.cpu.branchPred.usedRAS                       0                       # Number of times the RAS was used to get a target.
system.cpu.branchPred.RASInCorrect                  0                       # Number of incorrect RAS predictions.
system.cpu.branchPred.indirectLookups              35                       # Number of indirect predictor lookups.
system.cpu.branchPred.indirectHits                  0                       # Number of indirect target hits.
system.cpu.branchPred.indirectMisses               35                       # Number of indirect misses.
system.cpu.branchPredindirectMispredicted           11                       # Number of mispredicted indirect branches.
system.cpu_voltage_domain.voltage                   1                       # Voltage in Volts
system.cpu_clk_domain.clock                      1000                       # Clock period in ticks
system.cpu.dtb.walker.pwrStateResidencyTicks::UNDEFINED   6084812000                       # Cumulative time (in ticks) in various power states
system.cpu.dtb.rdAccesses                      457772                       # TLB accesses on read requests
system.cpu.dtb.wrAccesses                      365202                       # TLB accesses on write requests
system.cpu.dtb.rdMisses                           155                       # TLB misses on read requests
system.cpu.dtb.wrMisses                            27                       # TLB misses on write requests
system.cpu.apic_clk_domain.clock                16000                       # Clock period in ticks
system.cpu.interrupts.pwrStateResidencyTicks::UNDEFINED   6084812000                       # Cumulative time (in ticks) in various power states
system.cpu.itb.walker.pwrStateResidencyTicks::UNDEFINED   6084812000                       # Cumulative time (in ticks) in various power states
system.cpu.itb.rdAccesses                           0                       # TLB accesses on read requests
system.cpu.itb.wrAccesses                      763346                       # TLB accesses on write requests
system.cpu.itb.rdMisses                             0                       # TLB misses on read requests
system.cpu.itb.wrMisses                            69                       # TLB misses on write requests
system.cpu.workload.numSyscalls                    27                       # Number of system calls
system.cpu.pwrStateResidencyTicks::ON      6084812000                       # Cumulative time (in ticks) in various power states
system.cpu.numCycles                          6084812                       # number of cpu cycles simulated
system.cpu.numWorkItemsStarted                      0                       # number of work items this cpu started
system.cpu.numWorkItemsCompleted                    0                       # number of work items this cpu completed
system.cpu.committedInsts                     2992997                       # Number of instructions committed
system.cpu.committedOps                       4881026                       # Number of ops (including micro ops) committed
system.cpu.discardedOps                        905152                       # Number of ops (including micro ops) which were discarded before commit
system.cpu.numFetchSuspends                         0                       # Number of times Execute suspended instruction fetching
system.cpu.cpi                               2.033016                       # CPI: cycles per instruction
system.cpu.ipc                               0.491880                       # IPC: instructions per cycle
system.cpu.op_class_0::No_OpClass               16513      0.34%      0.34% # Class of committed instruction
system.cpu.op_class_0::IntAlu                 4133243     84.68%     85.02% # Class of committed instruction
system.cpu.op_class_0::IntMult                     11      0.00%     85.02% # Class of committed instruction
system.cpu.op_class_0::IntDiv                    1083      0.02%     85.04% # Class of committed instruction
system.cpu.op_class_0::FloatAdd                    18      0.00%     85.04% # Class of committed instruction
system.cpu.op_class_0::FloatCmp                     0      0.00%     85.04% # Class of committed instruction
system.cpu.op_class_0::FloatCvt                     0      0.00%     85.04% # Class of committed instruction
system.cpu.op_class_0::FloatMult                    0      0.00%     85.04% # Class of committed instruction
system.cpu.op_class_0::FloatMultAcc                 0      0.00%     85.04% # Class of committed instruction
system.cpu.op_class_0::FloatDiv                     0      0.00%     85.04% # Class of committed instruction
system.cpu.op_class_0::FloatMisc                    0      0.00%     85.04% # Class of committed instruction
system.cpu.op_class_0::FloatSqrt                    0      0.00%     85.04% # Class of committed instruction
system.cpu.op_class_0::SimdAdd                    284      0.01%     85.05% # Class of committed instruction
system.cpu.op_class_0::SimdAddAcc                   0      0.00%     85.05% # Class of committed instruction
system.cpu.op_class_0::SimdAlu                    403      0.01%     85.05% # Class of committed instruction
system.cpu.op_class_0::SimdCmp                      6      0.00%     85.06% # Class of committed instruction
system.cpu.op_class_0::SimdCvt                    664      0.01%     85.07% # Class of committed instruction
system.cpu.op_class_0::SimdMisc                   482      0.01%     85.08% # Class of committed instruction
system.cpu.op_class_0::SimdMult                     0      0.00%     85.08% # Class of committed instruction
system.cpu.op_class_0::SimdMultAcc                  0      0.00%     85.08% # Class of committed instruction
system.cpu.op_class_0::SimdShift                  102      0.00%     85.08% # Class of committed instruction
system.cpu.op_class_0::SimdShiftAcc                 0      0.00%     85.08% # Class of committed instruction
system.cpu.op_class_0::SimdSqrt                     0      0.00%     85.08% # Class of committed instruction
system.cpu.op_class_0::SimdFloatAdd                 0      0.00%     85.08% # Class of committed instruction
system.cpu.op_class_0::SimdFloatAlu                 0      0.00%     85.08% # Class of committed instruction
system.cpu.op_class_0::SimdFloatCmp                 0      0.00%     85.08% # Class of committed instruction
system.cpu.op_class_0::SimdFloatCvt                 0      0.00%     85.08% # Class of committed instruction
system.cpu.op_class_0::SimdFloatDiv                 0      0.00%     85.08% # Class of committed instruction
system.cpu.op_class_0::SimdFloatMisc                0      0.00%     85.08% # Class of committed instruction
system.cpu.op_class_0::SimdFloatMult                0      0.00%     85.08% # Class of committed instruction
system.cpu.op_class_0::SimdFloatMultAcc             0      0.00%     85.08% # Class of committed instruction
system.cpu.op_class_0::SimdFloatSqrt                0      0.00%     85.08% # Class of committed instruction
system.cpu.op_class_0::SimdAes                      0      0.00%     85.08% # Class of committed instruction
system.cpu.op_class_0::SimdAesMix                   0      0.00%     85.08% # Class of committed instruction
system.cpu.op_class_0::SimdSha1Hash                 0      0.00%     85.08% # Class of committed instruction
system.cpu.op_class_0::SimdSha1Hash2                0      0.00%     85.08% # Class of committed instruction
system.cpu.op_class_0::SimdSha256Hash               0      0.00%     85.08% # Class of committed instruction
system.cpu.op_class_0::SimdSha256Hash2              0      0.00%     85.08% # Class of committed instruction
system.cpu.op_class_0::SimdShaSigma2                0      0.00%     85.08% # Class of committed instruction
system.cpu.op_class_0::SimdShaSigma3                0      0.00%     85.08% # Class of committed instruction
system.cpu.op_class_0::MemRead                 377856      7.74%     92.82% # Class of committed instruction
system.cpu.op_class_0::MemWrite                267443      5.48%     98.30% # Class of committed instruction
system.cpu.op_class_0::FloatMemRead             41622      0.85%     99.15% # Class of committed instruction
system.cpu.op_class_0::FloatMemWrite            41296      0.85%    100.00% # Class of committed instruction
system.cpu.op_class_0::IprAccess                    0      0.00%    100.00% # Class of committed instruction
system.cpu.op_class_0::InstPrefetch                 0      0.00%    100.00% # Class of committed instruction
system.cpu.op_class_0::total                  4881026                       # Class of committed instruction
system.cpu.tickCycles                         5698968                       # Number of cycles that the object actually ticked
system.cpu.idleCycles                          385844                       # Total number of cycles that the object has spent stopped
system.cpu.fetch2.int_instructions                 72                       # Number of integer instructions successfully decoded
system.cpu.fetch2.fp_instructions                   0                       # Number of floating point instructions successfully decoded
system.cpu.fetch2.vec_instructions                  0                       # Number of SIMD instructions successfully decoded
system.cpu.fetch2.load_instructions                 0                       # Number of memory load instructions successfully decoded
system.cpu.fetch2.store_instructions                0                       # Number of memory store instructions successfully decoded
system.cpu.dcache.tags.pwrStateResidencyTicks::UNDEFINED   6084812000                       # Cumulative time (in ticks) in various power states
system.cpu.dcache.tags.tagsinuse           970.499855                       # Cycle average of tags in use
system.cpu.dcache.tags.total_refs              765171                       # Total number of references to valid blocks.
system.cpu.dcache.tags.sampled_refs              2876                       # Sample count of references to valid blocks.
system.cpu.dcache.tags.avg_refs            266.053894                       # Average number of references to valid blocks.
system.cpu.dcache.tags.warmup_cycle            239000                       # Cycle when the warmup percentage was hit.
system.cpu.dcache.tags.occ_blocks::.cpu.data   970.499855                       # Average occupied blocks per requestor
system.cpu.dcache.tags.occ_percent::.cpu.data     0.947754                       # Average percentage of cache occupancy
system.cpu.dcache.tags.occ_percent::total     0.947754                       # Average percentage of cache occupancy
system.cpu.dcache.tags.occ_task_id_blocks::1024         1024                       # Occupied blocks per task id
system.cpu.dcache.tags.age_task_id_blocks_1024::0           59                       # Occupied blocks per task id
system.cpu.dcache.tags.age_task_id_blocks_1024::1            2                       # Occupied blocks per task id
system.cpu.dcache.tags.age_task_id_blocks_1024::2          103                       # Occupied blocks per task id
system.cpu.dcache.tags.age_task_id_blocks_1024::3          860                       # Occupied blocks per task id
system.cpu.dcache.tags.occ_task_id_percent::1024            1                       # Percentage of cache occupancy per task id
system.cpu.dcache.tags.tag_accesses           1534932                       # Number of tag accesses
system.cpu.dcache.tags.data_accesses          1534932                       # Number of data accesses
system.cpu.dcache.pwrStateResidencyTicks::UNDEFINED   6084812000                       # Cumulative time (in ticks) in various power states
system.cpu.dcache.ReadReq_hits::.cpu.data       455469                       # number of ReadReq hits
system.cpu.dcache.ReadReq_hits::total          455469                       # number of ReadReq hits
system.cpu.dcache.WriteReq_hits::.cpu.data       306826                       # number of WriteReq hits
system.cpu.dcache.WriteReq_hits::total         306826                       # number of WriteReq hits
system.cpu.dcache.demand_hits::.cpu.data       762295                       # number of demand (read+write) hits
system.cpu.dcache.demand_hits::total           762295                       # number of demand (read+write) hits
system.cpu.dcache.overall_hits::.cpu.data       762295                       # number of overall hits
system.cpu.dcache.overall_hits::total          762295                       # number of overall hits
system.cpu.dcache.ReadReq_misses::.cpu.data         1820                       # number of ReadReq misses
system.cpu.dcache.ReadReq_misses::total          1820                       # number of ReadReq misses
system.cpu.dcache.WriteReq_misses::.cpu.data         1913                       # number of WriteReq misses
system.cpu.dcache.WriteReq_misses::total         1913                       # number of WriteReq misses
system.cpu.dcache.demand_misses::.cpu.data         3733                       # number of demand (read+write) misses
system.cpu.dcache.demand_misses::total           3733                       # number of demand (read+write) misses
system.cpu.dcache.overall_misses::.cpu.data         3733                       # number of overall misses
system.cpu.dcache.overall_misses::total          3733                       # number of overall misses
system.cpu.dcache.ReadReq_miss_latency::.cpu.data    203443000                       # number of ReadReq miss cycles
system.cpu.dcache.ReadReq_miss_latency::total    203443000                       # number of ReadReq miss cycles
system.cpu.dcache.WriteReq_miss_latency::.cpu.data    266713000                       # number of WriteReq miss cycles
system.cpu.dcache.WriteReq_miss_latency::total    266713000                       # number of WriteReq miss cycles
system.cpu.dcache.demand_miss_latency::.cpu.data    470156000                       # number of demand (read+write) miss cycles
system.cpu.dcache.demand_miss_latency::total    470156000                       # number of demand (read+write) miss cycles
system.cpu.dcache.overall_miss_latency::.cpu.data    470156000                       # number of overall miss cycles
system.cpu.dcache.overall_miss_latency::total    470156000                       # number of overall miss cycles
system.cpu.dcache.ReadReq_accesses::.cpu.data       457289                       # number of ReadReq accesses(hits+misses)
system.cpu.dcache.ReadReq_accesses::total       457289                       # number of ReadReq accesses(hits+misses)
system.cpu.dcache.WriteReq_accesses::.cpu.data       308739                       # number of WriteReq accesses(hits+misses)
system.cpu.dcache.WriteReq_accesses::total       308739                       # number of WriteReq accesses(hits+misses)
system.cpu.dcache.demand_accesses::.cpu.data       766028                       # number of demand (read+write) accesses
system.cpu.dcache.demand_accesses::total       766028                       # number of demand (read+write) accesses
system.cpu.dcache.overall_accesses::.cpu.data       766028                       # number of overall (read+write) accesses
system.cpu.dcache.overall_accesses::total       766028                       # number of overall (read+write) accesses
system.cpu.dcache.ReadReq_miss_rate::.cpu.data     0.003980                       # miss rate for ReadReq accesses
system.cpu.dcache.ReadReq_miss_rate::total     0.003980                       # miss rate for ReadReq accesses
system.cpu.dcache.WriteReq_miss_rate::.cpu.data     0.006196                       # miss rate for WriteReq accesses
system.cpu.dcache.WriteReq_miss_rate::total     0.006196                       # miss rate for WriteReq accesses
system.cpu.dcache.demand_miss_rate::.cpu.data     0.004873                       # miss rate for demand accesses
system.cpu.dcache.demand_miss_rate::total     0.004873                       # miss rate for demand accesses
system.cpu.dcache.overall_miss_rate::.cpu.data     0.004873                       # miss rate for overall accesses
system.cpu.dcache.overall_miss_rate::total     0.004873                       # miss rate for overall accesses
system.cpu.dcache.ReadReq_avg_miss_latency::.cpu.data 111781.868132                       # average ReadReq miss latency
system.cpu.dcache.ReadReq_avg_miss_latency::total 111781.868132                       # average ReadReq miss latency
system.cpu.dcache.WriteReq_avg_miss_latency::.cpu.data 139421.327757                       # average WriteReq miss latency
system.cpu.dcache.WriteReq_avg_miss_latency::total 139421.327757                       # average WriteReq miss latency
system.cpu.dcache.demand_avg_miss_latency::.cpu.data 125945.888026                       # average overall miss latency
system.cpu.dcache.demand_avg_miss_latency::total 125945.888026                       # average overall miss latency
system.cpu.dcache.overall_avg_miss_latency::.cpu.data 125945.888026                       # average overall miss latency
system.cpu.dcache.overall_avg_miss_latency::total 125945.888026                       # average overall miss latency
system.cpu.dcache.blocked_cycles::no_mshrs            0                       # number of cycles access was blocked
system.cpu.dcache.blocked_cycles::no_targets            0                       # number of cycles access was blocked
system.cpu.dcache.blocked::no_mshrs                 0                       # number of cycles access was blocked
system.cpu.dcache.blocked::no_targets               0                       # number of cycles access was blocked
system.cpu.dcache.avg_blocked_cycles::no_mshrs          nan                       # average number of cycles each access was blocked
system.cpu.dcache.avg_blocked_cycles::no_targets          nan                       # average number of cycles each access was blocked
system.cpu.dcache.writebacks::.writebacks          865                       # number of writebacks
system.cpu.dcache.writebacks::total               865                       # number of writebacks
system.cpu.dcache.ReadReq_mshr_hits::.cpu.data           20                       # number of ReadReq MSHR hits
system.cpu.dcache.ReadReq_mshr_hits::total           20                       # number of ReadReq MSHR hits
system.cpu.dcache.WriteReq_mshr_hits::.cpu.data          837                       # number of WriteReq MSHR hits
system.cpu.dcache.WriteReq_mshr_hits::total          837                       # number of WriteReq MSHR hits
system.cpu.dcache.demand_mshr_hits::.cpu.data          857                       # number of demand (read+write) MSHR hits
system.cpu.dcache.demand_mshr_hits::total          857                       # number of demand (read+write) MSHR hits
system.cpu.dcache.overall_mshr_hits::.cpu.data          857                       # number of overall MSHR hits
system.cpu.dcache.overall_mshr_hits::total          857                       # number of overall MSHR hits
system.cpu.dcache.ReadReq_mshr_misses::.cpu.data         1800                       # number of ReadReq MSHR misses
system.cpu.dcache.ReadReq_mshr_misses::total         1800                       # number of ReadReq MSHR misses
system.cpu.dcache.WriteReq_mshr_misses::.cpu.data         1076                       # number of WriteReq MSHR misses
system.cpu.dcache.WriteReq_mshr_misses::total         1076                       # number of WriteReq MSHR misses
system.cpu.dcache.demand_mshr_misses::.cpu.data         2876                       # number of demand (read+write) MSHR misses
system.cpu.dcache.demand_mshr_misses::total         2876                       # number of demand (read+write) MSHR misses
system.cpu.dcache.overall_mshr_misses::.cpu.data         2876                       # number of overall MSHR misses
system.cpu.dcache.overall_mshr_misses::total         2876                       # number of overall MSHR misses
system.cpu.dcache.ReadReq_mshr_miss_latency::.cpu.data    198004000                       # number of ReadReq MSHR miss cycles
system.cpu.dcache.ReadReq_mshr_miss_latency::total    198004000                       # number of ReadReq MSHR miss cycles
system.cpu.dcache.WriteReq_mshr_miss_latency::.cpu.data    161295000                       # number of WriteReq MSHR miss cycles
system.cpu.dcache.WriteReq_mshr_miss_latency::total    161295000                       # number of WriteReq MSHR miss cycles
system.cpu.dcache.demand_mshr_miss_latency::.cpu.data    359299000                       # number of demand (read+write) MSHR miss cycles
system.cpu.dcache.demand_mshr_miss_latency::total    359299000                       # number of demand (read+write) MSHR miss cycles
system.cpu.dcache.overall_mshr_miss_latency::.cpu.data    359299000                       # number of overall MSHR miss cycles
system.cpu.dcache.overall_mshr_miss_latency::total    359299000                       # number of overall MSHR miss cycles
system.cpu.dcache.ReadReq_mshr_miss_rate::.cpu.data     0.003936                       # mshr miss rate for ReadReq accesses
system.cpu.dcache.ReadReq_mshr_miss_rate::total     0.003936                       # mshr miss rate for ReadReq accesses
system.cpu.dcache.WriteReq_mshr_miss_rate::.cpu.data     0.003485                       # mshr miss rate for WriteReq accesses
system.cpu.dcache.WriteReq_mshr_miss_rate::total     0.003485                       # mshr miss rate for WriteReq accesses
system.cpu.dcache.demand_mshr_miss_rate::.cpu.data     0.003754                       # mshr miss rate for demand accesses
system.cpu.dcache.demand_mshr_miss_rate::total     0.003754                       # mshr miss rate for demand accesses
system.cpu.dcache.overall_mshr_miss_rate::.cpu.data     0.003754                       # mshr miss rate for overall accesses
system.cpu.dcache.overall_mshr_miss_rate::total     0.003754                       # mshr miss rate for overall accesses
system.cpu.dcache.ReadReq_avg_mshr_miss_latency::.cpu.data 110002.222222                       # average ReadReq mshr miss latency
system.cpu.dcache.ReadReq_avg_mshr_miss_latency::total 110002.222222                       # average ReadReq mshr miss latency
system.cpu.dcache.WriteReq_avg_mshr_miss_latency::.cpu.data 149902.416357                       # average WriteReq mshr miss latency
system.cpu.dcache.WriteReq_avg_mshr_miss_latency::total 149902.416357                       # average WriteReq mshr miss latency
system.cpu.dcache.demand_avg_mshr_miss_latency::.cpu.data 124930.111266                       # average overall mshr miss latency
system.cpu.dcache.demand_avg_mshr_miss_latency::total 124930.111266                       # average overall mshr miss latency
system.cpu.dcache.overall_avg_mshr_miss_latency::.cpu.data 124930.111266                       # average overall mshr miss latency
system.cpu.dcache.overall_avg_mshr_miss_latency::total 124930.111266                       # average overall mshr miss latency
system.cpu.dcache.replacements                   1852                       # number of replacements
system.cpu.dtb_walker_cache.tags.pwrStateResidencyTicks::UNDEFINED   6084812000                       # Cumulative time (in ticks) in various power states
system.cpu.dtb_walker_cache.tags.tagsinuse            0                       # Cycle average of tags in use
system.cpu.dtb_walker_cache.tags.total_refs            0                       # Total number of references to valid blocks.
system.cpu.dtb_walker_cache.tags.sampled_refs            0                       # Sample count of references to valid blocks.
system.cpu.dtb_walker_cache.tags.avg_refs          nan                       # Average number of references to valid blocks.
system.cpu.dtb_walker_cache.tags.warmup_cycle            0                       # Cycle when the warmup percentage was hit.
system.cpu.dtb_walker_cache.tags.tag_accesses            0                       # Number of tag accesses
system.cpu.dtb_walker_cache.tags.data_accesses            0                       # Number of data accesses
system.cpu.dtb_walker_cache.pwrStateResidencyTicks::UNDEFINED   6084812000                       # Cumulative time (in ticks) in various power states
system.cpu.dtb_walker_cache.blocked_cycles::no_mshrs            0                       # number of cycles access was blocked
system.cpu.dtb_walker_cache.blocked_cycles::no_targets            0                       # number of cycles access was blocked
system.cpu.dtb_walker_cache.blocked::no_mshrs            0                       # number of cycles access was blocked
system.cpu.dtb_walker_cache.blocked::no_targets            0                       # number of cycles access was blocked
system.cpu.dtb_walker_cache.avg_blocked_cycles::no_mshrs          nan                       # average number of cycles each access was blocked
system.cpu.dtb_walker_cache.avg_blocked_cycles::no_targets          nan                       # average number of cycles each access was blocked
system.cpu.dtb_walker_cache.replacements            0                       # number of replacements
system.cpu.icache.tags.pwrStateResidencyTicks::UNDEFINED   6084812000                       # Cumulative time (in ticks) in various power states
system.cpu.icache.tags.tagsinuse           710.409484                       # Cycle average of tags in use
system.cpu.icache.tags.total_refs              763345                       # Total number of references to valid blocks.
system.cpu.icache.tags.sampled_refs               892                       # Sample count of references to valid blocks.
system.cpu.icache.tags.avg_refs            855.767937                       # Average number of references to valid blocks.
system.cpu.icache.tags.warmup_cycle            113000                       # Cycle when the warmup percentage was hit.
system.cpu.icache.tags.occ_blocks::.cpu.inst   710.409484                       # Average occupied blocks per requestor
system.cpu.icache.tags.occ_percent::.cpu.inst     0.693759                       # Average percentage of cache occupancy
system.cpu.icache.tags.occ_percent::total     0.693759                       # Average percentage of cache occupancy
system.cpu.icache.tags.occ_task_id_blocks::1024          753                       # Occupied blocks per task id
system.cpu.icache.tags.age_task_id_blocks_1024::0           50                       # Occupied blocks per task id
system.cpu.icache.tags.age_task_id_blocks_1024::3          703                       # Occupied blocks per task id
system.cpu.icache.tags.occ_task_id_percent::1024     0.735352                       # Percentage of cache occupancy per task id
system.cpu.icache.tags.tag_accesses           1527584                       # Number of tag accesses
system.cpu.icache.tags.data_accesses          1527584                       # Number of data accesses
system.cpu.icache.pwrStateResidencyTicks::UNDEFINED   6084812000                       # Cumulative time (in ticks) in various power states
system.cpu.icache.ReadReq_hits::.cpu.inst       762453                       # number of ReadReq hits
system.cpu.icache.ReadReq_hits::total          762453                       # number of ReadReq hits
system.cpu.icache.demand_hits::.cpu.inst       762453                       # number of demand (read+write) hits
system.cpu.icache.demand_hits::total           762453                       # number of demand (read+write) hits
system.cpu.icache.overall_hits::.cpu.inst       762453                       # number of overall hits
system.cpu.icache.overall_hits::total          762453                       # number of overall hits
system.cpu.icache.ReadReq_misses::.cpu.inst          893                       # number of ReadReq misses
system.cpu.icache.ReadReq_misses::total           893                       # number of ReadReq misses
system.cpu.icache.demand_misses::.cpu.inst          893                       # number of demand (read+write) misses
system.cpu.icache.demand_misses::total            893                       # number of demand (read+write) misses
system.cpu.icache.overall_misses::.cpu.inst          893                       # number of overall misses
system.cpu.icache.overall_misses::total           893                       # number of overall misses
system.cpu.icache.ReadReq_miss_latency::.cpu.inst    107909000                       # number of ReadReq miss cycles
system.cpu.icache.ReadReq_miss_latency::total    107909000                       # number of ReadReq miss cycles
system.cpu.icache.demand_miss_latency::.cpu.inst    107909000                       # number of demand (read+write) miss cycles
system.cpu.icache.demand_miss_latency::total    107909000                       # number of demand (read+write) miss cycles
system.cpu.icache.overall_miss_latency::.cpu.inst    107909000                       # number of overall miss cycles
system.cpu.icache.overall_miss_latency::total    107909000                       # number of overall miss cycles
system.cpu.icache.ReadReq_accesses::.cpu.inst       763346                       # number of ReadReq accesses(hits+misses)
system.cpu.icache.ReadReq_accesses::total       763346                       # number of ReadReq accesses(hits+misses)
system.cpu.icache.demand_accesses::.cpu.inst       763346                       # number of demand (read+write) accesses
system.cpu.icache.demand_accesses::total       763346                       # number of demand (read+write) accesses
system.cpu.icache.overall_accesses::.cpu.inst       763346                       # number of overall (read+write) accesses
system.cpu.icache.overall_accesses::total       763346                       # number of overall (read+write) accesses
system.cpu.icache.ReadReq_miss_rate::.cpu.inst     0.001170                       # miss rate for ReadReq accesses
system.cpu.icache.ReadReq_miss_rate::total     0.001170                       # miss rate for ReadReq accesses
system.cpu.icache.demand_miss_rate::.cpu.inst     0.001170                       # miss rate for demand accesses
system.cpu.icache.demand_miss_rate::total     0.001170                       # miss rate for demand accesses
system.cpu.icache.overall_miss_rate::.cpu.inst     0.001170                       # miss rate for overall accesses
system.cpu.icache.overall_miss_rate::total     0.001170                       # miss rate for overall accesses
system.cpu.icache.ReadReq_avg_miss_latency::.cpu.inst 120838.745801                       # average ReadReq miss latency
system.cpu.icache.ReadReq_avg_miss_latency::total 120838.745801                       # average ReadReq miss latency
system.cpu.icache.demand_avg_miss_latency::.cpu.inst 120838.745801                       # average overall miss latency
system.cpu.icache.demand_avg_miss_latency::total 120838.745801                       # average overall miss latency
system.cpu.icache.overall_avg_miss_latency::.cpu.inst 120838.745801                       # average overall miss latency
system.cpu.icache.overall_avg_miss_latency::total 120838.745801                       # average overall miss latency
system.cpu.icache.blocked_cycles::no_mshrs            0                       # number of cycles access was blocked
system.cpu.icache.blocked_cycles::no_targets            0                       # number of cycles access was blocked
system.cpu.icache.blocked::no_mshrs                 0                       # number of cycles access was blocked
system.cpu.icache.blocked::no_targets               0                       # number of cycles access was blocked
system.cpu.icache.avg_blocked_cycles::no_mshrs          nan                       # average number of cycles each access was blocked
system.cpu.icache.avg_blocked_cycles::no_targets          nan                       # average number of cycles each access was blocked
system.cpu.icache.writebacks::.writebacks          139                       # number of writebacks
system.cpu.icache.writebacks::total               139                       # number of writebacks
system.cpu.icache.ReadReq_mshr_misses::.cpu.inst          893                       # number of ReadReq MSHR misses
system.cpu.icache.ReadReq_mshr_misses::total          893                       # number of ReadReq MSHR misses
system.cpu.icache.demand_mshr_misses::.cpu.inst          893                       # number of demand (read+write) MSHR misses
system.cpu.icache.demand_mshr_misses::total          893                       # number of demand (read+write) MSHR misses
system.cpu.icache.overall_mshr_misses::.cpu.inst          893                       # number of overall MSHR misses
system.cpu.icache.overall_mshr_misses::total          893                       # number of overall MSHR misses
system.cpu.icache.ReadReq_mshr_miss_latency::.cpu.inst    106125000                       # number of ReadReq MSHR miss cycles
system.cpu.icache.ReadReq_mshr_miss_latency::total    106125000                       # number of ReadReq MSHR miss cycles
system.cpu.icache.demand_mshr_miss_latency::.cpu.inst    106125000                       # number of demand (read+write) MSHR miss cycles
system.cpu.icache.demand_mshr_miss_latency::total    106125000                       # number of demand (read+write) MSHR miss cycles
system.cpu.icache.overall_mshr_miss_latency::.cpu.inst    106125000                       # number of overall MSHR miss cycles
system.cpu.icache.overall_mshr_miss_latency::total    106125000                       # number of overall MSHR miss cycles
system.cpu.icache.ReadReq_mshr_miss_rate::.cpu.inst     0.001170                       # mshr miss rate for ReadReq accesses
system.cpu.icache.ReadReq_mshr_miss_rate::total     0.001170                       # mshr miss rate for ReadReq accesses
system.cpu.icache.demand_mshr_miss_rate::.cpu.inst     0.001170                       # mshr miss rate for demand accesses
system.cpu.icache.demand_mshr_miss_rate::total     0.001170                       # mshr miss rate for demand accesses
system.cpu.icache.overall_mshr_miss_rate::.cpu.inst     0.001170                       # mshr miss rate for overall accesses
system.cpu.icache.overall_mshr_miss_rate::total     0.001170                       # mshr miss rate for overall accesses
system.cpu.icache.ReadReq_avg_mshr_miss_latency::.cpu.inst 118840.985442                       # average ReadReq mshr miss latency
system.cpu.icache.ReadReq_avg_mshr_miss_latency::total 118840.985442                       # average ReadReq mshr miss latency
system.cpu.icache.demand_avg_mshr_miss_latency::.cpu.inst 118840.985442                       # average overall mshr miss latency
system.cpu.icache.demand_avg_mshr_miss_latency::total 118840.985442                       # average overall mshr miss latency
system.cpu.icache.overall_avg_mshr_miss_latency::.cpu.inst 118840.985442                       # average overall mshr miss latency
system.cpu.icache.overall_avg_mshr_miss_latency::total 118840.985442                       # average overall mshr miss latency
system.cpu.icache.replacements                    139                       # number of replacements
system.cpu.itb_walker_cache.tags.pwrStateResidencyTicks::UNDEFINED   6084812000                       # Cumulative time (in ticks) in various power states
system.cpu.itb_walker_cache.tags.tagsinuse            0                       # Cycle average of tags in use
system.cpu.itb_walker_cache.tags.total_refs            0                       # Total number of references to valid blocks.
system.cpu.itb_walker_cache.tags.sampled_refs            0                       # Sample count of references to valid blocks.
system.cpu.itb_walker_cache.tags.avg_refs          nan                       # Average number of references to valid blocks.
system.cpu.itb_walker_cache.tags.warmup_cycle            0                       # Cycle when the warmup percentage was hit.
system.cpu.itb_walker_cache.tags.tag_accesses            0                       # Number of tag accesses
system.cpu.itb_walker_cache.tags.data_accesses            0                       # Number of data accesses
system.cpu.itb_walker_cache.pwrStateResidencyTicks::UNDEFINED   6084812000                       # Cumulative time (in ticks) in various power states
system.cpu.itb_walker_cache.blocked_cycles::no_mshrs            0                       # number of cycles access was blocked
system.cpu.itb_walker_cache.blocked_cycles::no_targets            0                       # number of cycles access was blocked
system.cpu.itb_walker_cache.blocked::no_mshrs            0                       # number of cycles access was blocked
system.cpu.itb_walker_cache.blocked::no_targets            0                       # number of cycles access was blocked
system.cpu.itb_walker_cache.avg_blocked_cycles::no_mshrs          nan                       # average number of cycles each access was blocked
system.cpu.itb_walker_cache.avg_blocked_cycles::no_targets          nan                       # average number of cycles each access was blocked
system.cpu.itb_walker_cache.replacements            0                       # number of replacements
system.l2.tags.pwrStateResidencyTicks::UNDEFINED   6084812000                       # Cumulative time (in ticks) in various power states
system.l2.tags.tagsinuse                  2712.386818                       # Cycle average of tags in use
system.l2.tags.total_refs                        5756                       # Total number of references to valid blocks.
system.l2.tags.sampled_refs                      3331                       # Sample count of references to valid blocks.
system.l2.tags.avg_refs                      1.728010                       # Average number of references to valid blocks.
system.l2.tags.warmup_cycle                     92000                       # Cycle when the warmup percentage was hit.
system.l2.tags.occ_blocks::.cpu.inst       811.861746                       # Average occupied blocks per requestor
system.l2.tags.occ_blocks::.cpu.data      1900.525072                       # Average occupied blocks per requestor
system.l2.tags.occ_percent::.cpu.inst        0.024776                       # Average percentage of cache occupancy
system.l2.tags.occ_percent::.cpu.data        0.057999                       # Average percentage of cache occupancy
system.l2.tags.occ_percent::total            0.082775                       # Average percentage of cache occupancy
system.l2.tags.occ_task_id_blocks::1024          3331                       # Occupied blocks per task id
system.l2.tags.age_task_id_blocks_1024::0           54                       # Occupied blocks per task id
system.l2.tags.age_task_id_blocks_1024::2          107                       # Occupied blocks per task id
system.l2.tags.age_task_id_blocks_1024::3         3170                       # Occupied blocks per task id
system.l2.tags.occ_task_id_percent::1024     0.101654                       # Percentage of cache occupancy per task id
system.l2.tags.tag_accesses                     49387                       # Number of tag accesses
system.l2.tags.data_accesses                    49387                       # Number of data accesses
system.l2.pwrStateResidencyTicks::UNDEFINED   6084812000                       # Cumulative time (in ticks) in various power states
system.l2.WritebackDirty_hits::.writebacks          865                       # number of WritebackDirty hits
system.l2.WritebackDirty_hits::total              865                       # number of WritebackDirty hits
system.l2.WritebackClean_hits::.writebacks          139                       # number of WritebackClean hits
system.l2.WritebackClean_hits::total              139                       # number of WritebackClean hits
system.l2.ReadExReq_hits::.cpu.data               128                       # number of ReadExReq hits
system.l2.ReadExReq_hits::total                   128                       # number of ReadExReq hits
system.l2.ReadCleanReq_hits::.cpu.inst             10                       # number of ReadCleanReq hits
system.l2.ReadCleanReq_hits::total                 10                       # number of ReadCleanReq hits
system.l2.ReadSharedReq_hits::.cpu.data           299                       # number of ReadSharedReq hits
system.l2.ReadSharedReq_hits::total               299                       # number of ReadSharedReq hits
system.l2.demand_hits::.cpu.inst                   10                       # number of demand (read+write) hits
system.l2.demand_hits::.cpu.data                  427                       # number of demand (read+write) hits
system.l2.demand_hits::total                      437                       # number of demand (read+write) hits
system.l2.overall_hits::.cpu.inst                  10                       # number of overall hits
system.l2.overall_hits::.cpu.data                 427                       # number of overall hits
system.l2.overall_hits::total                     437                       # number of overall hits
system.l2.ReadExReq_misses::.cpu.data             948                       # number of ReadExReq misses
system.l2.ReadExReq_misses::total                 948                       # number of ReadExReq misses
system.l2.ReadCleanReq_misses::.cpu.inst          883                       # number of ReadCleanReq misses
system.l2.ReadCleanReq_misses::total              883                       # number of ReadCleanReq misses
system.l2.ReadSharedReq_misses::.cpu.data         1501                       # number of ReadSharedReq misses
system.l2.ReadSharedReq_misses::total            1501                       # number of ReadSharedReq misses
system.l2.demand_misses::.cpu.inst                883                       # number of demand (read+write) misses
system.l2.demand_misses::.cpu.data               2449                       # number of demand (read+write) misses
system.l2.demand_misses::total                   3332                       # number of demand (read+write) misses
system.l2.overall_misses::.cpu.inst               883                       # number of overall misses
system.l2.overall_misses::.cpu.data              2449                       # number of overall misses
system.l2.overall_misses::total                  3332                       # number of overall misses
system.l2.ReadExReq_miss_latency::.cpu.data    155363000                       # number of ReadExReq miss cycles
system.l2.ReadExReq_miss_latency::total     155363000                       # number of ReadExReq miss cycles
system.l2.ReadCleanReq_miss_latency::.cpu.inst    103234000                       # number of ReadCleanReq miss cycles
system.l2.ReadCleanReq_miss_latency::total    103234000                       # number of ReadCleanReq miss cycles
system.l2.ReadSharedReq_miss_latency::.cpu.data    186317000                       # number of ReadSharedReq miss cycles
system.l2.ReadSharedReq_miss_latency::total    186317000                       # number of ReadSharedReq miss cycles
system.l2.demand_miss_latency::.cpu.inst    103234000                       # number of demand (read+write) miss cycles
system.l2.demand_miss_latency::.cpu.data    341680000                       # number of demand (read+write) miss cycles
system.l2.demand_miss_latency::total        444914000                       # number of demand (read+write) miss cycles
system.l2.overall_miss_latency::.cpu.inst    103234000                       # number of overall miss cycles
system.l2.overall_miss_latency::.cpu.data    341680000                       # number of overall miss cycles
system.l2.overall_miss_latency::total       444914000                       # number of overall miss cycles
system.l2.WritebackDirty_accesses::.writebacks          865                       # number of WritebackDirty accesses(hits+misses)
system.l2.WritebackDirty_accesses::total          865                       # number of WritebackDirty accesses(hits+misses)
system.l2.WritebackClean_accesses::.writebacks          139                       # number of WritebackClean accesses(hits+misses)
system.l2.WritebackClean_accesses::total          139                       # number of WritebackClean accesses(hits+misses)
system.l2.ReadExReq_accesses::.cpu.data          1076                       # number of ReadExReq accesses(hits+misses)
system.l2.ReadExReq_accesses::total              1076                       # number of ReadExReq accesses(hits+misses)
system.l2.ReadCleanReq_accesses::.cpu.inst          893                       # number of ReadCleanReq accesses(hits+misses)
system.l2.ReadCleanReq_accesses::total            893                       # number of ReadCleanReq accesses(hits+misses)
system.l2.ReadSharedReq_accesses::.cpu.data         1800                       # number of ReadSharedReq accesses(hits+misses)
system.l2.ReadSharedReq_accesses::total          1800                       # number of ReadSharedReq accesses(hits+misses)
system.l2.demand_accesses::.cpu.inst              893                       # number of demand (read+write) accesses
system.l2.demand_accesses::.cpu.data             2876                       # number of demand (read+write) accesses
system.l2.demand_accesses::total                 3769                       # number of demand (read+write) accesses
system.l2.overall_accesses::.cpu.inst             893                       # number of overall (read+write) accesses
system.l2.overall_accesses::.cpu.data            2876                       # number of overall (read+write) accesses
system.l2.overall_accesses::total                3769                       # number of overall (read+write) accesses
system.l2.ReadExReq_miss_rate::.cpu.data     0.881041                       # miss rate for ReadExReq accesses
system.l2.ReadExReq_miss_rate::total         0.881041                       # miss rate for ReadExReq accesses
system.l2.ReadCleanReq_miss_rate::.cpu.inst     0.988802                       # miss rate for ReadCleanReq accesses
system.l2.ReadCleanReq_miss_rate::total      0.988802                       # miss rate for ReadCleanReq accesses
system.l2.ReadSharedReq_miss_rate::.cpu.data     0.833889                       # miss rate for ReadSharedReq accesses
system.l2.ReadSharedReq_miss_rate::total     0.833889                       # miss rate for ReadSharedReq accesses
system.l2.demand_miss_rate::.cpu.inst        0.988802                       # miss rate for demand accesses
system.l2.demand_miss_rate::.cpu.data        0.851530                       # miss rate for demand accesses
system.l2.demand_miss_rate::total            0.884054                       # miss rate for demand accesses
system.l2.overall_miss_rate::.cpu.inst       0.988802                       # miss rate for overall accesses
system.l2.overall_miss_rate::.cpu.data       0.851530                       # miss rate for overall accesses
system.l2.overall_miss_rate::total           0.884054                       # miss rate for overall accesses
system.l2.ReadExReq_avg_miss_latency::.cpu.data 163885.021097                       # average ReadExReq miss latency
system.l2.ReadExReq_avg_miss_latency::total 163885.021097                       # average ReadExReq miss latency
system.l2.ReadCleanReq_avg_miss_latency::.cpu.inst 116912.797282                       # average ReadCleanReq miss latency
system.l2.ReadCleanReq_avg_miss_latency::total 116912.797282                       # average ReadCleanReq miss latency
system.l2.ReadSharedReq_avg_miss_latency::.cpu.data 124128.580946                       # average ReadSharedReq miss latency
system.l2.ReadSharedReq_avg_miss_latency::total 124128.580946                       # average ReadSharedReq miss latency
system.l2.demand_avg_miss_latency::.cpu.inst 116912.797282                       # average overall miss latency
system.l2.demand_avg_miss_latency::.cpu.data 139518.170682                       # average overall miss latency
system.l2.demand_avg_miss_latency::total 133527.611044                       # average overall miss latency
system.l2.overall_avg_miss_latency::.cpu.inst 116912.797282                       # average overall miss latency
system.l2.overall_avg_miss_latency::.cpu.data 139518.170682                       # average overall miss latency
system.l2.overall_avg_miss_latency::total 133527.611044                       # average overall miss latency
system.l2.blocked_cycles::no_mshrs                  0                       # number of cycles access was blocked
system.l2.blocked_cycles::no_targets                0                       # number of cycles access was blocked
system.l2.blocked::no_mshrs                         0                       # number of cycles access was blocked
system.l2.blocked::no_targets                       0                       # number of cycles access was blocked
system.l2.avg_blocked_cycles::no_mshrs            nan                       # average number of cycles each access was blocked
system.l2.avg_blocked_cycles::no_targets          nan                       # average number of cycles each access was blocked
system.l2.ReadExReq_mshr_misses::.cpu.data          948                       # number of ReadExReq MSHR misses
system.l2.ReadExReq_mshr_misses::total            948                       # number of ReadExReq MSHR misses
system.l2.ReadCleanReq_mshr_misses::.cpu.inst          883                       # number of ReadCleanReq MSHR misses
system.l2.ReadCleanReq_mshr_misses::total          883                       # number of ReadCleanReq MSHR misses
system.l2.ReadSharedReq_mshr_misses::.cpu.data         1501                       # number of ReadSharedReq MSHR misses
system.l2.ReadSharedReq_mshr_misses::total         1501                       # number of ReadSharedReq MSHR misses
system.l2.demand_mshr_misses::.cpu.inst           883                       # number of demand (read+write) MSHR misses
system.l2.demand_mshr_misses::.cpu.data          2449                       # number of demand (read+write) MSHR misses
system.l2.demand_mshr_misses::total              3332                       # number of demand (read+write) MSHR misses
system.l2.overall_mshr_misses::.cpu.inst          883                       # number of overall MSHR misses
system.l2.overall_mshr_misses::.cpu.data         2449                       # number of overall MSHR misses
system.l2.overall_mshr_misses::total             3332                       # number of overall MSHR misses
system.l2.ReadExReq_mshr_miss_latency::.cpu.data    136403000                       # number of ReadExReq MSHR miss cycles
system.l2.ReadExReq_mshr_miss_latency::total    136403000                       # number of ReadExReq MSHR miss cycles
system.l2.ReadCleanReq_mshr_miss_latency::.cpu.inst     85594000                       # number of ReadCleanReq MSHR miss cycles
system.l2.ReadCleanReq_mshr_miss_latency::total     85594000                       # number of ReadCleanReq MSHR miss cycles
system.l2.ReadSharedReq_mshr_miss_latency::.cpu.data    156297000                       # number of ReadSharedReq MSHR miss cycles
system.l2.ReadSharedReq_mshr_miss_latency::total    156297000                       # number of ReadSharedReq MSHR miss cycles
system.l2.demand_mshr_miss_latency::.cpu.inst     85594000                       # number of demand (read+write) MSHR miss cycles
system.l2.demand_mshr_miss_latency::.cpu.data    292700000                       # number of demand (read+write) MSHR miss cycles
system.l2.demand_mshr_miss_latency::total    378294000                       # number of demand (read+write) MSHR miss cycles
system.l2.overall_mshr_miss_latency::.cpu.inst     85594000                       # number of overall MSHR miss cycles
system.l2.overall_mshr_miss_latency::.cpu.data    292700000                       # number of overall MSHR miss cycles
system.l2.overall_mshr_miss_latency::total    378294000                       # number of overall MSHR miss cycles
system.l2.ReadExReq_mshr_miss_rate::.cpu.data     0.881041                       # mshr miss rate for ReadExReq accesses
system.l2.ReadExReq_mshr_miss_rate::total     0.881041                       # mshr miss rate for ReadExReq accesses
system.l2.ReadCleanReq_mshr_miss_rate::.cpu.inst     0.988802                       # mshr miss rate for ReadCleanReq accesses
system.l2.ReadCleanReq_mshr_miss_rate::total     0.988802                       # mshr miss rate for ReadCleanReq accesses
system.l2.ReadSharedReq_mshr_miss_rate::.cpu.data     0.833889                       # mshr miss rate for ReadSharedReq accesses
system.l2.ReadSharedReq_mshr_miss_rate::total     0.833889                       # mshr miss rate for ReadSharedReq accesses
system.l2.demand_mshr_miss_rate::.cpu.inst     0.988802                       # mshr miss rate for demand accesses
system.l2.demand_mshr_miss_rate::.cpu.data     0.851530                       # mshr miss rate for demand accesses
system.l2.demand_mshr_miss_rate::total       0.884054                       # mshr miss rate for demand accesses
system.l2.overall_mshr_miss_rate::.cpu.inst     0.988802                       # mshr miss rate for overall accesses
system.l2.overall_mshr_miss_rate::.cpu.data     0.851530                       # mshr miss rate for overall accesses
system.l2.overall_mshr_miss_rate::total      0.884054                       # mshr miss rate for overall accesses
system.l2.ReadExReq_avg_mshr_miss_latency::.cpu.data 143885.021097                       # average ReadExReq mshr miss latency
system.l2.ReadExReq_avg_mshr_miss_latency::total 143885.021097                       # average ReadExReq mshr miss latency
system.l2.ReadCleanReq_avg_mshr_miss_latency::.cpu.inst 96935.447339                       # average ReadCleanReq mshr miss latency
system.l2.ReadCleanReq_avg_mshr_miss_latency::total 96935.447339                       # average ReadCleanReq mshr miss latency
system.l2.ReadSharedReq_avg_mshr_miss_latency::.cpu.data 104128.580946                       # average ReadSharedReq mshr miss latency
system.l2.ReadSharedReq_avg_mshr_miss_latency::total 104128.580946                       # average ReadSharedReq mshr miss latency
system.l2.demand_avg_mshr_miss_latency::.cpu.inst 96935.447339                       # average overall mshr miss latency
system.l2.demand_avg_mshr_miss_latency::.cpu.data 119518.170682                       # average overall mshr miss latency
system.l2.demand_avg_mshr_miss_latency::total 113533.613445                       # average overall mshr miss latency
system.l2.overall_avg_mshr_miss_latency::.cpu.inst 96935.447339                       # average overall mshr miss latency
system.l2.overall_avg_mshr_miss_latency::.cpu.data 119518.170682                       # average overall mshr miss latency
system.l2.overall_avg_mshr_miss_latency::total 113533.613445                       # average overall mshr miss latency
system.l2.replacements                              0                       # number of replacements
system.membus.snoop_filter.tot_requests          3331                       # Total number of requests made to the snoop filter.
system.membus.snoop_filter.hit_single_requests            0                       # Number of requests hitting in the snoop filter with a single holder of the requested data.
system.membus.snoop_filter.hit_multi_requests            0                       # Number of requests hitting in the snoop filter with multiple (>1) holders of the requested data.
system.membus.snoop_filter.tot_snoops               0                       # Total number of snoops made to the snoop filter.
system.membus.snoop_filter.hit_single_snoops            0                       # Number of snoops hitting in the snoop filter with a single holder of the requested data.
system.membus.snoop_filter.hit_multi_snoops            0                       # Number of snoops hitting in the snoop filter with multiple (>1) holders of the requested data.
system.membus.pwrStateResidencyTicks::UNDEFINED   6084812000                       # Cumulative time (in ticks) in various power states
system.membus.trans_dist::ReadResp               2383                       # Transaction distribution
system.membus.trans_dist::ReadExReq               948                       # Transaction distribution
system.membus.trans_dist::ReadExResp              948                       # Transaction distribution
system.membus.trans_dist::ReadSharedReq          2383                       # Transaction distribution
system.membus.pkt_count_system.l2.mem_side::system.mem_ctrls.port         6662                       # Packet count per connected master and slave (bytes)
system.membus.pkt_count_system.l2.mem_side::total         6662                       # Packet count per connected master and slave (bytes)
system.membus.pkt_count::total                   6662                       # Packet count per connected master and slave (bytes)
system.membus.pkt_size_system.l2.mem_side::system.mem_ctrls.port       213184                       # Cumulative packet size per connected master and slave (bytes)
system.membus.pkt_size_system.l2.mem_side::total       213184                       # Cumulative packet size per connected master and slave (bytes)
system.membus.pkt_size::total                  213184                       # Cumulative packet size per connected master and slave (bytes)
system.membus.snoops                                0                       # Total snoops (count)
system.membus.snoopTraffic                          0                       # Total snoop traffic (bytes)
system.membus.snoop_fanout::samples              3331                       # Request fanout histogram
system.membus.snoop_fanout::mean                    0                       # Request fanout histogram
system.membus.snoop_fanout::stdev                   0                       # Request fanout histogram
system.membus.snoop_fanout::underflows              0      0.00%      0.00% # Request fanout histogram
system.membus.snoop_fanout::0                    3331    100.00%    100.00% # Request fanout histogram
system.membus.snoop_fanout::1                       0      0.00%    100.00% # Request fanout histogram
system.membus.snoop_fanout::overflows               0      0.00%    100.00% # Request fanout histogram
system.membus.snoop_fanout::min_value               0                       # Request fanout histogram
system.membus.snoop_fanout::max_value               0                       # Request fanout histogram
system.membus.snoop_fanout::total                3331                       # Request fanout histogram
system.membus.reqLayer2.occupancy             3331000                       # Layer occupancy (ticks)
system.membus.reqLayer2.utilization               0.1                       # Layer utilization (%)
system.membus.respLayer1.occupancy           16663000                       # Layer occupancy (ticks)
system.membus.respLayer1.utilization              0.3                       # Layer utilization (%)
system.tol2bus.snoop_filter.tot_requests         5760                       # Total number of requests made to the snoop filter.
system.tol2bus.snoop_filter.hit_single_requests         1992                       # Number of requests hitting in the snoop filter with a single holder of the requested data.
system.tol2bus.snoop_filter.hit_multi_requests            3                       # Number of requests hitting in the snoop filter with multiple (>1) holders of the requested data.
system.tol2bus.snoop_filter.tot_snoops              0                       # Total number of snoops made to the snoop filter.
system.tol2bus.snoop_filter.hit_single_snoops            0                       # Number of snoops hitting in the snoop filter with a single holder of the requested data.
system.tol2bus.snoop_filter.hit_multi_snoops            0                       # Number of snoops hitting in the snoop filter with multiple (>1) holders of the requested data.
system.tol2bus.pwrStateResidencyTicks::UNDEFINED   6084812000                       # Cumulative time (in ticks) in various power states
system.tol2bus.trans_dist::ReadResp              2692                       # Transaction distribution
system.tol2bus.trans_dist::WritebackDirty          865                       # Transaction distribution
system.tol2bus.trans_dist::WritebackClean          139                       # Transaction distribution
system.tol2bus.trans_dist::CleanEvict             987                       # Transaction distribution
system.tol2bus.trans_dist::ReadExReq             1076                       # Transaction distribution
system.tol2bus.trans_dist::ReadExResp            1076                       # Transaction distribution
system.tol2bus.trans_dist::ReadCleanReq           893                       # Transaction distribution
system.tol2bus.trans_dist::ReadSharedReq         1800                       # Transaction distribution
system.tol2bus.pkt_count_system.cpu.icache.mem_side::system.l2.cpu_side         1924                       # Packet count per connected master and slave (bytes)
system.tol2bus.pkt_count_system.cpu.dcache.mem_side::system.l2.cpu_side         7604                       # Packet count per connected master and slave (bytes)
system.tol2bus.pkt_count::total                  9528                       # Packet count per connected master and slave (bytes)
system.tol2bus.pkt_size_system.cpu.icache.mem_side::system.l2.cpu_side        65984                       # Cumulative packet size per connected master and slave (bytes)
system.tol2bus.pkt_size_system.cpu.dcache.mem_side::system.l2.cpu_side       239424                       # Cumulative packet size per connected master and slave (bytes)
system.tol2bus.pkt_size::total                 305408                       # Cumulative packet size per connected master and slave (bytes)
system.tol2bus.snoops                               0                       # Total snoops (count)
system.tol2bus.snoopTraffic                         0                       # Total snoop traffic (bytes)
system.tol2bus.snoop_fanout::samples             3769                       # Request fanout histogram
system.tol2bus.snoop_fanout::mean            0.001061                       # Request fanout histogram
system.tol2bus.snoop_fanout::stdev           0.032564                       # Request fanout histogram
system.tol2bus.snoop_fanout::underflows             0      0.00%      0.00% # Request fanout histogram
system.tol2bus.snoop_fanout::0                   3765     99.89%     99.89% # Request fanout histogram
system.tol2bus.snoop_fanout::1                      4      0.11%    100.00% # Request fanout histogram
system.tol2bus.snoop_fanout::2                      0      0.00%    100.00% # Request fanout histogram
system.tol2bus.snoop_fanout::3                      0      0.00%    100.00% # Request fanout histogram
system.tol2bus.snoop_fanout::4                      0      0.00%    100.00% # Request fanout histogram
system.tol2bus.snoop_fanout::overflows              0      0.00%    100.00% # Request fanout histogram
system.tol2bus.snoop_fanout::min_value              0                       # Request fanout histogram
system.tol2bus.snoop_fanout::max_value              1                       # Request fanout histogram
system.tol2bus.snoop_fanout::total               3769                       # Request fanout histogram
system.tol2bus.reqLayer0.occupancy            7768000                       # Layer occupancy (ticks)
system.tol2bus.reqLayer0.utilization              0.1                       # Layer utilization (%)
system.tol2bus.respLayer0.occupancy           2676000                       # Layer occupancy (ticks)
system.tol2bus.respLayer0.utilization             0.0                       # Layer utilization (%)
system.tol2bus.respLayer1.occupancy           8628000                       # Layer occupancy (ticks)
system.tol2bus.respLayer1.utilization             0.1                       # Layer utilization (%)

---------- End Simulation Statistics   ----------
