
---------- Begin Simulation Statistics ----------
sim_seconds                                  0.006161                       # Number of seconds simulated
sim_ticks                                  6161070000                       # Number of ticks simulated
final_tick                                 6161070000                       # Number of ticks from beginning of simulation (restored from checkpoints and never reset)
sim_freq                                 1000000000000                       # Frequency of simulated ticks
host_inst_rate                                 109160                       # Simulator instruction rate (inst/s)
host_op_rate                                   178020                       # Simulator op (including micro ops) rate (op/s)
host_tick_rate                              224705308                       # Simulator tick rate (ticks/s)
host_mem_usage                                 660396                       # Number of bytes of host memory used
host_seconds                                    27.42                       # Real time elapsed on the host
sim_insts                                     2992997                       # Number of instructions simulated
sim_ops                                       4881026                       # Number of ops (including micro ops) simulated
system.clk_domain.voltage_domain.voltage            1                       # Voltage in Volts
system.clk_domain.clock                          1000                       # Clock period in ticks
system.mem_ctrl.pwrStateResidencyTicks::UNDEFINED   6161070000                       # Cumulative time (in ticks) in various power states
system.mem_ctrl.bytes_read::.cpu.inst           56320                       # Number of bytes read from this memory
system.mem_ctrl.bytes_read::.cpu.data          156864                       # Number of bytes read from this memory
system.mem_ctrl.bytes_read::total              213184                       # Number of bytes read from this memory
system.mem_ctrl.bytes_inst_read::.cpu.inst        56320                       # Number of instructions bytes read from this memory
system.mem_ctrl.bytes_inst_read::total          56320                       # Number of instructions bytes read from this memory
system.mem_ctrl.bytes_written::.writebacks          320                       # Number of bytes written to this memory
system.mem_ctrl.bytes_written::total              320                       # Number of bytes written to this memory
system.mem_ctrl.num_reads::.cpu.inst              880                       # Number of read requests responded to by this memory
system.mem_ctrl.num_reads::.cpu.data             2451                       # Number of read requests responded to by this memory
system.mem_ctrl.num_reads::total                 3331                       # Number of read requests responded to by this memory
system.mem_ctrl.num_writes::.writebacks             5                       # Number of write requests responded to by this memory
system.mem_ctrl.num_writes::total                   5                       # Number of write requests responded to by this memory
system.mem_ctrl.bw_read::.cpu.inst            9141269                       # Total read bandwidth from this memory (bytes/s)
system.mem_ctrl.bw_read::.cpu.data           25460513                       # Total read bandwidth from this memory (bytes/s)
system.mem_ctrl.bw_read::total               34601782                       # Total read bandwidth from this memory (bytes/s)
system.mem_ctrl.bw_inst_read::.cpu.inst       9141269                       # Instruction read bandwidth from this memory (bytes/s)
system.mem_ctrl.bw_inst_read::total           9141269                       # Instruction read bandwidth from this memory (bytes/s)
system.mem_ctrl.bw_write::.writebacks           51939                       # Write bandwidth from this memory (bytes/s)
system.mem_ctrl.bw_write::total                 51939                       # Write bandwidth from this memory (bytes/s)
system.mem_ctrl.bw_total::.writebacks           51939                       # Total bandwidth to/from this memory (bytes/s)
system.mem_ctrl.bw_total::.cpu.inst           9141269                       # Total bandwidth to/from this memory (bytes/s)
system.mem_ctrl.bw_total::.cpu.data          25460513                       # Total bandwidth to/from this memory (bytes/s)
system.mem_ctrl.bw_total::total              34653721                       # Total bandwidth to/from this memory (bytes/s)
system.mem_ctrl.avgPriority_.writebacks::samples        10.00                       # Average QoS priority value for accepted requests
system.mem_ctrl.avgPriority_.cpu.inst::samples      1760.00                       # Average QoS priority value for accepted requests
system.mem_ctrl.avgPriority_.cpu.data::samples      4900.00                       # Average QoS priority value for accepted requests
system.mem_ctrl.priorityMinLatency       0.000000019000                       # per QoS priority minimum request to response latency (s)
system.mem_ctrl.priorityMaxLatency       0.000000701000                       # per QoS priority maximum request to response latency (s)
system.mem_ctrl.numReadWriteTurnArounds             0                       # Number of turnarounds from READ to WRITE
system.mem_ctrl.numWriteReadTurnArounds             0                       # Number of turnarounds from WRITE to READ
system.mem_ctrl.numStayReadState                10989                       # Number of times bus staying in READ state
system.mem_ctrl.numStayWriteState                   0                       # Number of times bus staying in WRITE state
system.mem_ctrl.readReqs                         3331                       # Number of read requests accepted
system.mem_ctrl.writeReqs                           5                       # Number of write requests accepted
system.mem_ctrl.readBursts                       6662                       # Number of DRAM read bursts, including those serviced by the write queue
system.mem_ctrl.writeBursts                        10                       # Number of DRAM write bursts, including those merged in the write queue
system.mem_ctrl.bytesReadDRAM                  213120                       # Total number of bytes read from DRAM
system.mem_ctrl.bytesReadWrQ                       64                       # Total number of bytes read from write queue
system.mem_ctrl.bytesWritten                        0                       # Total number of bytes written to DRAM
system.mem_ctrl.bytesReadSys                   213184                       # Total read bytes from the system interface side
system.mem_ctrl.bytesWrittenSys                   320                       # Total written bytes from the system interface side
system.mem_ctrl.servicedByWrQ                       2                       # Number of DRAM read bursts serviced by the write queue
system.mem_ctrl.mergedWrBursts                      0                       # Number of DRAM write bursts merged with an existing one
system.mem_ctrl.neitherReadNorWriteReqs             0                       # Number of requests that are neither read nor write
system.mem_ctrl.perBankRdBursts::0                408                       # Per bank write bursts
system.mem_ctrl.perBankRdBursts::1                498                       # Per bank write bursts
system.mem_ctrl.perBankRdBursts::2                464                       # Per bank write bursts
system.mem_ctrl.perBankRdBursts::3                424                       # Per bank write bursts
system.mem_ctrl.perBankRdBursts::4                358                       # Per bank write bursts
system.mem_ctrl.perBankRdBursts::5                370                       # Per bank write bursts
system.mem_ctrl.perBankRdBursts::6                384                       # Per bank write bursts
system.mem_ctrl.perBankRdBursts::7                438                       # Per bank write bursts
system.mem_ctrl.perBankRdBursts::8                432                       # Per bank write bursts
system.mem_ctrl.perBankRdBursts::9                438                       # Per bank write bursts
system.mem_ctrl.perBankRdBursts::10               418                       # Per bank write bursts
system.mem_ctrl.perBankRdBursts::11               442                       # Per bank write bursts
system.mem_ctrl.perBankRdBursts::12               378                       # Per bank write bursts
system.mem_ctrl.perBankRdBursts::13               400                       # Per bank write bursts
system.mem_ctrl.perBankRdBursts::14               410                       # Per bank write bursts
system.mem_ctrl.perBankRdBursts::15               398                       # Per bank write bursts
system.mem_ctrl.perBankWrBursts::0                  0                       # Per bank write bursts
system.mem_ctrl.perBankWrBursts::1                  0                       # Per bank write bursts
system.mem_ctrl.perBankWrBursts::2                  0                       # Per bank write bursts
system.mem_ctrl.perBankWrBursts::3                  0                       # Per bank write bursts
system.mem_ctrl.perBankWrBursts::4                  0                       # Per bank write bursts
system.mem_ctrl.perBankWrBursts::5                  0                       # Per bank write bursts
system.mem_ctrl.perBankWrBursts::6                  0                       # Per bank write bursts
system.mem_ctrl.perBankWrBursts::7                  0                       # Per bank write bursts
system.mem_ctrl.perBankWrBursts::8                  0                       # Per bank write bursts
system.mem_ctrl.perBankWrBursts::9                  0                       # Per bank write bursts
system.mem_ctrl.perBankWrBursts::10                 0                       # Per bank write bursts
system.mem_ctrl.perBankWrBursts::11                 0                       # Per bank write bursts
system.mem_ctrl.perBankWrBursts::12                 0                       # Per bank write bursts
system.mem_ctrl.perBankWrBursts::13                 0                       # Per bank write bursts
system.mem_ctrl.perBankWrBursts::14                 0                       # Per bank write bursts
system.mem_ctrl.perBankWrBursts::15                 0                       # Per bank write bursts
system.mem_ctrl.numRdRetry                          0                       # Number of times read queue was full causing retry
system.mem_ctrl.numWrRetry                          0                       # Number of times write queue was full causing retry
system.mem_ctrl.totGap                     6160948000                       # Total gap between requests
system.mem_ctrl.readPktSize::0                      0                       # Read request sizes (log2)
system.mem_ctrl.readPktSize::1                      0                       # Read request sizes (log2)
system.mem_ctrl.readPktSize::2                      0                       # Read request sizes (log2)
system.mem_ctrl.readPktSize::3                      0                       # Read request sizes (log2)
system.mem_ctrl.readPktSize::4                      0                       # Read request sizes (log2)
system.mem_ctrl.readPktSize::5                   6662                       # Read request sizes (log2)
system.mem_ctrl.writePktSize::0                     0                       # Write request sizes (log2)
system.mem_ctrl.writePktSize::1                     0                       # Write request sizes (log2)
system.mem_ctrl.writePktSize::2                     0                       # Write request sizes (log2)
system.mem_ctrl.writePktSize::3                     0                       # Write request sizes (log2)
system.mem_ctrl.writePktSize::4                     0                       # Write request sizes (log2)
system.mem_ctrl.writePktSize::5                    10                       # Write request sizes (log2)
system.mem_ctrl.rdQLenPdf::0                     3101                       # What read queue length does an incoming req see
system.mem_ctrl.rdQLenPdf::1                     3105                       # What read queue length does an incoming req see
system.mem_ctrl.rdQLenPdf::2                      217                       # What read queue length does an incoming req see
system.mem_ctrl.rdQLenPdf::3                      214                       # What read queue length does an incoming req see
system.mem_ctrl.rdQLenPdf::4                       12                       # What read queue length does an incoming req see
system.mem_ctrl.rdQLenPdf::5                       11                       # What read queue length does an incoming req see
system.mem_ctrl.rdQLenPdf::6                        0                       # What read queue length does an incoming req see
system.mem_ctrl.rdQLenPdf::7                        0                       # What read queue length does an incoming req see
system.mem_ctrl.rdQLenPdf::8                        0                       # What read queue length does an incoming req see
system.mem_ctrl.rdQLenPdf::9                        0                       # What read queue length does an incoming req see
system.mem_ctrl.rdQLenPdf::10                       0                       # What read queue length does an incoming req see
system.mem_ctrl.rdQLenPdf::11                       0                       # What read queue length does an incoming req see
system.mem_ctrl.rdQLenPdf::12                       0                       # What read queue length does an incoming req see
system.mem_ctrl.rdQLenPdf::13                       0                       # What read queue length does an incoming req see
system.mem_ctrl.rdQLenPdf::14                       0                       # What read queue length does an incoming req see
system.mem_ctrl.rdQLenPdf::15                       0                       # What read queue length does an incoming req see
system.mem_ctrl.rdQLenPdf::16                       0                       # What read queue length does an incoming req see
system.mem_ctrl.rdQLenPdf::17                       0                       # What read queue length does an incoming req see
system.mem_ctrl.rdQLenPdf::18                       0                       # What read queue length does an incoming req see
system.mem_ctrl.rdQLenPdf::19                       0                       # What read queue length does an incoming req see
system.mem_ctrl.rdQLenPdf::20                       0                       # What read queue length does an incoming req see
system.mem_ctrl.rdQLenPdf::21                       0                       # What read queue length does an incoming req see
system.mem_ctrl.rdQLenPdf::22                       0                       # What read queue length does an incoming req see
system.mem_ctrl.rdQLenPdf::23                       0                       # What read queue length does an incoming req see
system.mem_ctrl.rdQLenPdf::24                       0                       # What read queue length does an incoming req see
system.mem_ctrl.rdQLenPdf::25                       0                       # What read queue length does an incoming req see
system.mem_ctrl.rdQLenPdf::26                       0                       # What read queue length does an incoming req see
system.mem_ctrl.rdQLenPdf::27                       0                       # What read queue length does an incoming req see
system.mem_ctrl.rdQLenPdf::28                       0                       # What read queue length does an incoming req see
system.mem_ctrl.rdQLenPdf::29                       0                       # What read queue length does an incoming req see
system.mem_ctrl.rdQLenPdf::30                       0                       # What read queue length does an incoming req see
system.mem_ctrl.rdQLenPdf::31                       0                       # What read queue length does an incoming req see
system.mem_ctrl.wrQLenPdf::0                        1                       # What write queue length does an incoming req see
system.mem_ctrl.wrQLenPdf::1                        1                       # What write queue length does an incoming req see
system.mem_ctrl.wrQLenPdf::2                        1                       # What write queue length does an incoming req see
system.mem_ctrl.wrQLenPdf::3                        1                       # What write queue length does an incoming req see
system.mem_ctrl.wrQLenPdf::4                        1                       # What write queue length does an incoming req see
system.mem_ctrl.wrQLenPdf::5                        1                       # What write queue length does an incoming req see
system.mem_ctrl.wrQLenPdf::6                        1                       # What write queue length does an incoming req see
system.mem_ctrl.wrQLenPdf::7                        1                       # What write queue length does an incoming req see
system.mem_ctrl.wrQLenPdf::8                        1                       # What write queue length does an incoming req see
system.mem_ctrl.wrQLenPdf::9                        1                       # What write queue length does an incoming req see
system.mem_ctrl.wrQLenPdf::10                       0                       # What write queue length does an incoming req see
system.mem_ctrl.wrQLenPdf::11                       0                       # What write queue length does an incoming req see
system.mem_ctrl.wrQLenPdf::12                       0                       # What write queue length does an incoming req see
system.mem_ctrl.wrQLenPdf::13                       0                       # What write queue length does an incoming req see
system.mem_ctrl.wrQLenPdf::14                       0                       # What write queue length does an incoming req see
system.mem_ctrl.wrQLenPdf::15                       0                       # What write queue length does an incoming req see
system.mem_ctrl.wrQLenPdf::16                       0                       # What write queue length does an incoming req see
system.mem_ctrl.wrQLenPdf::17                       0                       # What write queue length does an incoming req see
system.mem_ctrl.wrQLenPdf::18                       0                       # What write queue length does an incoming req see
system.mem_ctrl.wrQLenPdf::19                       0                       # What write queue length does an incoming req see
system.mem_ctrl.wrQLenPdf::20                       0                       # What write queue length does an incoming req see
system.mem_ctrl.wrQLenPdf::21                       0                       # What write queue length does an incoming req see
system.mem_ctrl.wrQLenPdf::22                       0                       # What write queue length does an incoming req see
system.mem_ctrl.wrQLenPdf::23                       0                       # What write queue length does an incoming req see
system.mem_ctrl.wrQLenPdf::24                       0                       # What write queue length does an incoming req see
system.mem_ctrl.wrQLenPdf::25                       0                       # What write queue length does an incoming req see
system.mem_ctrl.wrQLenPdf::26                       0                       # What write queue length does an incoming req see
system.mem_ctrl.wrQLenPdf::27                       0                       # What write queue length does an incoming req see
system.mem_ctrl.wrQLenPdf::28                       0                       # What write queue length does an incoming req see
system.mem_ctrl.wrQLenPdf::29                       0                       # What write queue length does an incoming req see
system.mem_ctrl.wrQLenPdf::30                       0                       # What write queue length does an incoming req see
system.mem_ctrl.wrQLenPdf::31                       0                       # What write queue length does an incoming req see
system.mem_ctrl.wrQLenPdf::32                       0                       # What write queue length does an incoming req see
system.mem_ctrl.wrQLenPdf::33                       0                       # What write queue length does an incoming req see
system.mem_ctrl.wrQLenPdf::34                       0                       # What write queue length does an incoming req see
system.mem_ctrl.wrQLenPdf::35                       0                       # What write queue length does an incoming req see
system.mem_ctrl.wrQLenPdf::36                       0                       # What write queue length does an incoming req see
system.mem_ctrl.wrQLenPdf::37                       0                       # What write queue length does an incoming req see
system.mem_ctrl.wrQLenPdf::38                       0                       # What write queue length does an incoming req see
system.mem_ctrl.wrQLenPdf::39                       0                       # What write queue length does an incoming req see
system.mem_ctrl.wrQLenPdf::40                       0                       # What write queue length does an incoming req see
system.mem_ctrl.wrQLenPdf::41                       0                       # What write queue length does an incoming req see
system.mem_ctrl.wrQLenPdf::42                       0                       # What write queue length does an incoming req see
system.mem_ctrl.wrQLenPdf::43                       0                       # What write queue length does an incoming req see
system.mem_ctrl.wrQLenPdf::44                       0                       # What write queue length does an incoming req see
system.mem_ctrl.wrQLenPdf::45                       0                       # What write queue length does an incoming req see
system.mem_ctrl.wrQLenPdf::46                       0                       # What write queue length does an incoming req see
system.mem_ctrl.wrQLenPdf::47                       0                       # What write queue length does an incoming req see
system.mem_ctrl.wrQLenPdf::48                       0                       # What write queue length does an incoming req see
system.mem_ctrl.wrQLenPdf::49                       0                       # What write queue length does an incoming req see
system.mem_ctrl.wrQLenPdf::50                       0                       # What write queue length does an incoming req see
system.mem_ctrl.wrQLenPdf::51                       0                       # What write queue length does an incoming req see
system.mem_ctrl.wrQLenPdf::52                       0                       # What write queue length does an incoming req see
system.mem_ctrl.wrQLenPdf::53                       0                       # What write queue length does an incoming req see
system.mem_ctrl.wrQLenPdf::54                       0                       # What write queue length does an incoming req see
system.mem_ctrl.wrQLenPdf::55                       0                       # What write queue length does an incoming req see
system.mem_ctrl.wrQLenPdf::56                       0                       # What write queue length does an incoming req see
system.mem_ctrl.wrQLenPdf::57                       0                       # What write queue length does an incoming req see
system.mem_ctrl.wrQLenPdf::58                       0                       # What write queue length does an incoming req see
system.mem_ctrl.wrQLenPdf::59                       0                       # What write queue length does an incoming req see
system.mem_ctrl.wrQLenPdf::60                       0                       # What write queue length does an incoming req see
system.mem_ctrl.wrQLenPdf::61                       0                       # What write queue length does an incoming req see
system.mem_ctrl.wrQLenPdf::62                       0                       # What write queue length does an incoming req see
system.mem_ctrl.wrQLenPdf::63                       0                       # What write queue length does an incoming req see
system.mem_ctrl.bytesPerActivate::samples         1947                       # Bytes accessed per row activation
system.mem_ctrl.bytesPerActivate::mean     109.394967                       # Bytes accessed per row activation
system.mem_ctrl.bytesPerActivate::gmean     85.283424                       # Bytes accessed per row activation
system.mem_ctrl.bytesPerActivate::stdev    108.296051                       # Bytes accessed per row activation
system.mem_ctrl.bytesPerActivate::0-63              1      0.05%      0.05% # Bytes accessed per row activation
system.mem_ctrl.bytesPerActivate::64-127         1514     77.76%     77.81% # Bytes accessed per row activation
system.mem_ctrl.bytesPerActivate::128-191          143      7.34%     85.16% # Bytes accessed per row activation
system.mem_ctrl.bytesPerActivate::192-255           79      4.06%     89.21% # Bytes accessed per row activation
system.mem_ctrl.bytesPerActivate::256-319           50      2.57%     91.78% # Bytes accessed per row activation
system.mem_ctrl.bytesPerActivate::320-383           35      1.80%     93.58% # Bytes accessed per row activation
system.mem_ctrl.bytesPerActivate::384-447           30      1.54%     95.12% # Bytes accessed per row activation
system.mem_ctrl.bytesPerActivate::448-511           25      1.28%     96.40% # Bytes accessed per row activation
system.mem_ctrl.bytesPerActivate::512-575           70      3.60%    100.00% # Bytes accessed per row activation
system.mem_ctrl.bytesPerActivate::total          1947                       # Bytes accessed per row activation
system.mem_ctrl.masterReadBytes::.cpu.inst        56320                       # Per-master bytes read from memory
system.mem_ctrl.masterReadBytes::.cpu.data       156800                       # Per-master bytes read from memory
system.mem_ctrl.masterReadRate::.cpu.inst 9141269.292509255931                       # Per-master bytes read from memory rate (Bytes/sec)
system.mem_ctrl.masterReadRate::.cpu.data 25450124.734826903790                       # Per-master bytes read from memory rate (Bytes/sec)
system.mem_ctrl.masterReadAccesses::.cpu.inst         1760                       # Per-master read serviced memory accesses
system.mem_ctrl.masterReadAccesses::.cpu.data         4902                       # Per-master read serviced memory accesses
system.mem_ctrl.masterWriteAccesses::.writebacks           10                       # Per-master write serviced memory accesses
system.mem_ctrl.masterReadTotalLat::.cpu.inst     79136000                       # Per-master read total memory access latency
system.mem_ctrl.masterReadTotalLat::.cpu.data    325647000                       # Per-master read total memory access latency
system.mem_ctrl.masterReadAvgLat::.cpu.inst     44963.64                       # Per-master read average memory access latency
system.mem_ctrl.masterReadAvgLat::.cpu.data     66431.46                       # Per-master read average memory access latency
system.mem_ctrl.masterWriteAvgLat::.writebacks         0.00                       # Per-master write average memory access latency
system.mem_ctrl.totQLat                     278243000                       # Total ticks spent queuing
system.mem_ctrl.totMemAccLat                404783000                       # Total ticks spent from burst creation until serviced by the DRAM
system.mem_ctrl.totBusLat                    26640000                       # Total ticks spent in databus transfers
system.mem_ctrl.avgQLat                      41778.23                       # Average queueing delay per DRAM burst
system.mem_ctrl.avgBusLat                     4000.00                       # Average bus latency per DRAM burst
system.mem_ctrl.avgMemAccLat                 60778.23                       # Average memory access latency per DRAM burst
system.mem_ctrl.avgRdBW                         34.59                       # Average DRAM read bandwidth in MiByte/s
system.mem_ctrl.avgWrBW                          0.00                       # Average achieved write bandwidth in MiByte/s
system.mem_ctrl.avgRdBWSys                      34.60                       # Average system read bandwidth in MiByte/s
system.mem_ctrl.avgWrBWSys                       0.05                       # Average system write bandwidth in MiByte/s
system.mem_ctrl.peakBW                        8000.00                       # Theoretical peak bandwidth in MiByte/s
system.mem_ctrl.busUtil                          0.43                       # Data bus utilization in percentage
system.mem_ctrl.busUtilRead                      0.43                       # Data bus utilization in percentage for reads
system.mem_ctrl.busUtilWrite                     0.00                       # Data bus utilization in percentage for writes
system.mem_ctrl.avgRdQLen                        2.01                       # Average read queue length when enqueuing
system.mem_ctrl.avgWrQLen                        5.20                       # Average write queue length when enqueuing
system.mem_ctrl.readRowHits                      4712                       # Number of row buffer hits during reads
system.mem_ctrl.writeRowHits                        0                       # Number of row buffer hits during writes
system.mem_ctrl.readRowHitRate                  70.75                       # Row buffer hit rate for reads
system.mem_ctrl.writeRowHitRate                  0.00                       # Row buffer hit rate for writes
system.mem_ctrl.avgGap                     1846806.95                       # Average gap between requests
system.mem_ctrl.pageHitRate                     70.64                       # Row buffer hit rate, read and write combined
system.mem_ctrl_0.actEnergy                         0                       # Energy for activate commands per rank (pJ)
system.mem_ctrl_0.preEnergy                         0                       # Energy for precharge commands per rank (pJ)
system.mem_ctrl_0.readEnergy                        0                       # Energy for read commands per rank (pJ)
system.mem_ctrl_0.writeEnergy                       0                       # Energy for write commands per rank (pJ)
system.mem_ctrl_0.refreshEnergy                     0                       # Energy for refresh commands per rank (pJ)
system.mem_ctrl_0.actBackEnergy                     0                       # Energy for active background per rank (pJ)
system.mem_ctrl_0.preBackEnergy                     0                       # Energy for precharge background per rank (pJ)
system.mem_ctrl_0.actPowerDownEnergy                0                       # Energy for active power-down per rank (pJ)
system.mem_ctrl_0.prePowerDownEnergy                0                       # Energy for precharge power-down per rank (pJ)
system.mem_ctrl_0.selfRefreshEnergy                 0                       # Energy for self refresh per rank (pJ)
system.mem_ctrl_0.totalEnergy                       0                       # Total energy per rank (pJ)
system.mem_ctrl_0.averagePower                      0                       # Core power per rank (mW)
system.mem_ctrl_0.totalIdleTime            5720899500                       # Total Idle time Per DRAM Rank
system.mem_ctrl_0.memoryStateTime::IDLE      18289000                       # Time in different power states
system.mem_ctrl_0.memoryStateTime::REF      263380000                       # Time in different power states
system.mem_ctrl_0.memoryStateTime::SREF    2215058000                       # Time in different power states
system.mem_ctrl_0.memoryStateTime::PRE_PDN   1235009500                       # Time in different power states
system.mem_ctrl_0.memoryStateTime::ACT      158436500                       # Time in different power states
system.mem_ctrl_0.memoryStateTime::ACT_PDN   2270897000                       # Time in different power states
system.pwrStateResidencyTicks::UNDEFINED   6161070000                       # Cumulative time (in ticks) in various power states
system.cpu.branchPred.lookups                      69                       # Number of BP lookups
system.cpu.branchPred.condPredicted                69                       # Number of conditional branches predicted
system.cpu.branchPred.condIncorrect                26                       # Number of conditional branches incorrect
system.cpu.branchPred.BTBLookups                   35                       # Number of BTB lookups
system.cpu.branchPred.BTBHits                       0                       # Number of BTB hits
system.cpu.branchPred.BTBCorrect                    0                       # Number of correct BTB predictions (this stat may not work properly.
system.cpu.branchPred.BTBHitPct              0.000000                       # BTB Hit Percentage
system.cpu.branchPred.usedRAS                       0                       # Number of times the RAS was used to get a target.
system.cpu.branchPred.RASInCorrect                  0                       # Number of incorrect RAS predictions.
system.cpu.branchPred.indirectLookups              35                       # Number of indirect predictor lookups.
system.cpu.branchPred.indirectHits                  0                       # Number of indirect target hits.
system.cpu.branchPred.indirectMisses               35                       # Number of indirect misses.
system.cpu.branchPredindirectMispredicted           11                       # Number of mispredicted indirect branches.
system.cpu.dtb.walker.pwrStateResidencyTicks::UNDEFINED   6161070000                       # Cumulative time (in ticks) in various power states
system.cpu.dtb.rdAccesses                      457773                       # TLB accesses on read requests
system.cpu.dtb.wrAccesses                      365202                       # TLB accesses on write requests
system.cpu.dtb.rdMisses                           155                       # TLB misses on read requests
system.cpu.dtb.wrMisses                            27                       # TLB misses on write requests
system.cpu.apic_clk_domain.clock                16000                       # Clock period in ticks
system.cpu.interrupts.pwrStateResidencyTicks::UNDEFINED   6161070000                       # Cumulative time (in ticks) in various power states
system.cpu.itb.walker.pwrStateResidencyTicks::UNDEFINED   6161070000                       # Cumulative time (in ticks) in various power states
system.cpu.itb.rdAccesses                           0                       # TLB accesses on read requests
system.cpu.itb.wrAccesses                      763654                       # TLB accesses on write requests
system.cpu.itb.rdMisses                             0                       # TLB misses on read requests
system.cpu.itb.wrMisses                            69                       # TLB misses on write requests
system.cpu.workload.numSyscalls                    27                       # Number of system calls
system.cpu.pwrStateResidencyTicks::ON      6161070000                       # Cumulative time (in ticks) in various power states
system.cpu.numCycles                          6161070                       # number of cpu cycles simulated
system.cpu.numWorkItemsStarted                      0                       # number of work items this cpu started
system.cpu.numWorkItemsCompleted                    0                       # number of work items this cpu completed
system.cpu.committedInsts                     2992997                       # Number of instructions committed
system.cpu.committedOps                       4881026                       # Number of ops (including micro ops) committed
system.cpu.discardedOps                        905349                       # Number of ops (including micro ops) which were discarded before commit
system.cpu.numFetchSuspends                         0                       # Number of times Execute suspended instruction fetching
system.cpu.cpi                               2.058495                       # CPI: cycles per instruction
system.cpu.ipc                               0.485792                       # IPC: instructions per cycle
system.cpu.op_class_0::No_OpClass               16513      0.34%      0.34% # Class of committed instruction
system.cpu.op_class_0::IntAlu                 4133243     84.68%     85.02% # Class of committed instruction
system.cpu.op_class_0::IntMult                     11      0.00%     85.02% # Class of committed instruction
system.cpu.op_class_0::IntDiv                    1083      0.02%     85.04% # Class of committed instruction
system.cpu.op_class_0::FloatAdd                    18      0.00%     85.04% # Class of committed instruction
system.cpu.op_class_0::FloatCmp                     0      0.00%     85.04% # Class of committed instruction
system.cpu.op_class_0::FloatCvt                     0      0.00%     85.04% # Class of committed instruction
system.cpu.op_class_0::FloatMult                    0      0.00%     85.04% # Class of committed instruction
system.cpu.op_class_0::FloatMultAcc                 0      0.00%     85.04% # Class of committed instruction
system.cpu.op_class_0::FloatDiv                     0      0.00%     85.04% # Class of committed instruction
system.cpu.op_class_0::FloatMisc                    0      0.00%     85.04% # Class of committed instruction
system.cpu.op_class_0::FloatSqrt                    0      0.00%     85.04% # Class of committed instruction
system.cpu.op_class_0::SimdAdd                    284      0.01%     85.05% # Class of committed instruction
system.cpu.op_class_0::SimdAddAcc                   0      0.00%     85.05% # Class of committed instruction
system.cpu.op_class_0::SimdAlu                    403      0.01%     85.05% # Class of committed instruction
system.cpu.op_class_0::SimdCmp                      6      0.00%     85.06% # Class of committed instruction
system.cpu.op_class_0::SimdCvt                    664      0.01%     85.07% # Class of committed instruction
system.cpu.op_class_0::SimdMisc                   482      0.01%     85.08% # Class of committed instruction
system.cpu.op_class_0::SimdMult                     0      0.00%     85.08% # Class of committed instruction
system.cpu.op_class_0::SimdMultAcc                  0      0.00%     85.08% # Class of committed instruction
system.cpu.op_class_0::SimdShift                  102      0.00%     85.08% # Class of committed instruction
system.cpu.op_class_0::SimdShiftAcc                 0      0.00%     85.08% # Class of committed instruction
system.cpu.op_class_0::SimdSqrt                     0      0.00%     85.08% # Class of committed instruction
system.cpu.op_class_0::SimdFloatAdd                 0      0.00%     85.08% # Class of committed instruction
system.cpu.op_class_0::SimdFloatAlu                 0      0.00%     85.08% # Class of committed instruction
system.cpu.op_class_0::SimdFloatCmp                 0      0.00%     85.08% # Class of committed instruction
system.cpu.op_class_0::SimdFloatCvt                 0      0.00%     85.08% # Class of committed instruction
system.cpu.op_class_0::SimdFloatDiv                 0      0.00%     85.08% # Class of committed instruction
system.cpu.op_class_0::SimdFloatMisc                0      0.00%     85.08% # Class of committed instruction
system.cpu.op_class_0::SimdFloatMult                0      0.00%     85.08% # Class of committed instruction
system.cpu.op_class_0::SimdFloatMultAcc             0      0.00%     85.08% # Class of committed instruction
system.cpu.op_class_0::SimdFloatSqrt                0      0.00%     85.08% # Class of committed instruction
system.cpu.op_class_0::SimdAes                      0      0.00%     85.08% # Class of committed instruction
system.cpu.op_class_0::SimdAesMix                   0      0.00%     85.08% # Class of committed instruction
system.cpu.op_class_0::SimdSha1Hash                 0      0.00%     85.08% # Class of committed instruction
system.cpu.op_class_0::SimdSha1Hash2                0      0.00%     85.08% # Class of committed instruction
system.cpu.op_class_0::SimdSha256Hash               0      0.00%     85.08% # Class of committed instruction
system.cpu.op_class_0::SimdSha256Hash2              0      0.00%     85.08% # Class of committed instruction
system.cpu.op_class_0::SimdShaSigma2                0      0.00%     85.08% # Class of committed instruction
system.cpu.op_class_0::SimdShaSigma3                0      0.00%     85.08% # Class of committed instruction
system.cpu.op_class_0::MemRead                 377856      7.74%     92.82% # Class of committed instruction
system.cpu.op_class_0::MemWrite                267443      5.48%     98.30% # Class of committed instruction
system.cpu.op_class_0::FloatMemRead             41622      0.85%     99.15% # Class of committed instruction
system.cpu.op_class_0::FloatMemWrite            41296      0.85%    100.00% # Class of committed instruction
system.cpu.op_class_0::IprAccess                    0      0.00%    100.00% # Class of committed instruction
system.cpu.op_class_0::InstPrefetch                 0      0.00%    100.00% # Class of committed instruction
system.cpu.op_class_0::total                  4881026                       # Class of committed instruction
system.cpu.tickCycles                         5716688                       # Number of cycles that the object actually ticked
system.cpu.idleCycles                          444382                       # Total number of cycles that the object has spent stopped
system.cpu.fetch2.int_instructions                 73                       # Number of integer instructions successfully decoded
system.cpu.fetch2.fp_instructions                   0                       # Number of floating point instructions successfully decoded
system.cpu.fetch2.vec_instructions                  0                       # Number of SIMD instructions successfully decoded
system.cpu.fetch2.load_instructions                 0                       # Number of memory load instructions successfully decoded
system.cpu.fetch2.store_instructions                0                       # Number of memory store instructions successfully decoded
system.cpu.dcache.tags.pwrStateResidencyTicks::UNDEFINED   6161070000                       # Cumulative time (in ticks) in various power states
system.cpu.dcache.tags.tagsinuse           253.954765                       # Cycle average of tags in use
system.cpu.dcache.tags.total_refs              763880                       # Total number of references to valid blocks.
system.cpu.dcache.tags.sampled_refs              7465                       # Sample count of references to valid blocks.
system.cpu.dcache.tags.avg_refs            102.328198                       # Average number of references to valid blocks.
system.cpu.dcache.tags.warmup_cycle            239000                       # Cycle when the warmup percentage was hit.
system.cpu.dcache.tags.occ_blocks::.cpu.data   253.954765                       # Average occupied blocks per requestor
system.cpu.dcache.tags.occ_percent::.cpu.data     0.992011                       # Average percentage of cache occupancy
system.cpu.dcache.tags.occ_percent::total     0.992011                       # Average percentage of cache occupancy
system.cpu.dcache.tags.occ_task_id_blocks::1024          256                       # Occupied blocks per task id
system.cpu.dcache.tags.age_task_id_blocks_1024::0           78                       # Occupied blocks per task id
system.cpu.dcache.tags.age_task_id_blocks_1024::1          178                       # Occupied blocks per task id
system.cpu.dcache.tags.occ_task_id_percent::1024            1                       # Percentage of cache occupancy per task id
system.cpu.dcache.tags.tag_accesses           1539351                       # Number of tag accesses
system.cpu.dcache.tags.data_accesses          1539351                       # Number of data accesses
system.cpu.dcache.pwrStateResidencyTicks::UNDEFINED   6161070000                       # Cumulative time (in ticks) in various power states
system.cpu.dcache.ReadReq_hits::.cpu.data       453017                       # number of ReadReq hits
system.cpu.dcache.ReadReq_hits::total          453017                       # number of ReadReq hits
system.cpu.dcache.WriteReq_hits::.cpu.data       303398                       # number of WriteReq hits
system.cpu.dcache.WriteReq_hits::total         303398                       # number of WriteReq hits
system.cpu.dcache.demand_hits::.cpu.data       756415                       # number of demand (read+write) hits
system.cpu.dcache.demand_hits::total           756415                       # number of demand (read+write) hits
system.cpu.dcache.overall_hits::.cpu.data       756415                       # number of overall hits
system.cpu.dcache.overall_hits::total          756415                       # number of overall hits
system.cpu.dcache.ReadReq_misses::.cpu.data         4187                       # number of ReadReq misses
system.cpu.dcache.ReadReq_misses::total          4187                       # number of ReadReq misses
system.cpu.dcache.WriteReq_misses::.cpu.data         5341                       # number of WriteReq misses
system.cpu.dcache.WriteReq_misses::total         5341                       # number of WriteReq misses
system.cpu.dcache.demand_misses::.cpu.data         9528                       # number of demand (read+write) misses
system.cpu.dcache.demand_misses::total           9528                       # number of demand (read+write) misses
system.cpu.dcache.overall_misses::.cpu.data         9528                       # number of overall misses
system.cpu.dcache.overall_misses::total          9528                       # number of overall misses
system.cpu.dcache.ReadReq_miss_latency::.cpu.data    264791000                       # number of ReadReq miss cycles
system.cpu.dcache.ReadReq_miss_latency::total    264791000                       # number of ReadReq miss cycles
system.cpu.dcache.WriteReq_miss_latency::.cpu.data    353461000                       # number of WriteReq miss cycles
system.cpu.dcache.WriteReq_miss_latency::total    353461000                       # number of WriteReq miss cycles
system.cpu.dcache.demand_miss_latency::.cpu.data    618252000                       # number of demand (read+write) miss cycles
system.cpu.dcache.demand_miss_latency::total    618252000                       # number of demand (read+write) miss cycles
system.cpu.dcache.overall_miss_latency::.cpu.data    618252000                       # number of overall miss cycles
system.cpu.dcache.overall_miss_latency::total    618252000                       # number of overall miss cycles
system.cpu.dcache.ReadReq_accesses::.cpu.data       457204                       # number of ReadReq accesses(hits+misses)
system.cpu.dcache.ReadReq_accesses::total       457204                       # number of ReadReq accesses(hits+misses)
system.cpu.dcache.WriteReq_accesses::.cpu.data       308739                       # number of WriteReq accesses(hits+misses)
system.cpu.dcache.WriteReq_accesses::total       308739                       # number of WriteReq accesses(hits+misses)
system.cpu.dcache.demand_accesses::.cpu.data       765943                       # number of demand (read+write) accesses
system.cpu.dcache.demand_accesses::total       765943                       # number of demand (read+write) accesses
system.cpu.dcache.overall_accesses::.cpu.data       765943                       # number of overall (read+write) accesses
system.cpu.dcache.overall_accesses::total       765943                       # number of overall (read+write) accesses
system.cpu.dcache.ReadReq_miss_rate::.cpu.data     0.009158                       # miss rate for ReadReq accesses
system.cpu.dcache.ReadReq_miss_rate::total     0.009158                       # miss rate for ReadReq accesses
system.cpu.dcache.WriteReq_miss_rate::.cpu.data     0.017299                       # miss rate for WriteReq accesses
system.cpu.dcache.WriteReq_miss_rate::total     0.017299                       # miss rate for WriteReq accesses
system.cpu.dcache.demand_miss_rate::.cpu.data     0.012440                       # miss rate for demand accesses
system.cpu.dcache.demand_miss_rate::total     0.012440                       # miss rate for demand accesses
system.cpu.dcache.overall_miss_rate::.cpu.data     0.012440                       # miss rate for overall accesses
system.cpu.dcache.overall_miss_rate::total     0.012440                       # miss rate for overall accesses
system.cpu.dcache.ReadReq_avg_miss_latency::.cpu.data 63241.222833                       # average ReadReq miss latency
system.cpu.dcache.ReadReq_avg_miss_latency::total 63241.222833                       # average ReadReq miss latency
system.cpu.dcache.WriteReq_avg_miss_latency::.cpu.data 66178.805467                       # average WriteReq miss latency
system.cpu.dcache.WriteReq_avg_miss_latency::total 66178.805467                       # average WriteReq miss latency
system.cpu.dcache.demand_avg_miss_latency::.cpu.data 64887.909320                       # average overall miss latency
system.cpu.dcache.demand_avg_miss_latency::total 64887.909320                       # average overall miss latency
system.cpu.dcache.overall_avg_miss_latency::.cpu.data 64887.909320                       # average overall miss latency
system.cpu.dcache.overall_avg_miss_latency::total 64887.909320                       # average overall miss latency
system.cpu.dcache.blocked_cycles::no_mshrs            0                       # number of cycles access was blocked
system.cpu.dcache.blocked_cycles::no_targets            0                       # number of cycles access was blocked
system.cpu.dcache.blocked::no_mshrs                 0                       # number of cycles access was blocked
system.cpu.dcache.blocked::no_targets               0                       # number of cycles access was blocked
system.cpu.dcache.avg_blocked_cycles::no_mshrs          nan                       # average number of cycles each access was blocked
system.cpu.dcache.avg_blocked_cycles::no_targets          nan                       # average number of cycles each access was blocked
system.cpu.dcache.writebacks::.writebacks         6109                       # number of writebacks
system.cpu.dcache.writebacks::total              6109                       # number of writebacks
system.cpu.dcache.ReadReq_mshr_hits::.cpu.data           27                       # number of ReadReq MSHR hits
system.cpu.dcache.ReadReq_mshr_hits::total           27                       # number of ReadReq MSHR hits
system.cpu.dcache.WriteReq_mshr_hits::.cpu.data         2036                       # number of WriteReq MSHR hits
system.cpu.dcache.WriteReq_mshr_hits::total         2036                       # number of WriteReq MSHR hits
system.cpu.dcache.demand_mshr_hits::.cpu.data         2063                       # number of demand (read+write) MSHR hits
system.cpu.dcache.demand_mshr_hits::total         2063                       # number of demand (read+write) MSHR hits
system.cpu.dcache.overall_mshr_hits::.cpu.data         2063                       # number of overall MSHR hits
system.cpu.dcache.overall_mshr_hits::total         2063                       # number of overall MSHR hits
system.cpu.dcache.ReadReq_mshr_misses::.cpu.data         4160                       # number of ReadReq MSHR misses
system.cpu.dcache.ReadReq_mshr_misses::total         4160                       # number of ReadReq MSHR misses
system.cpu.dcache.WriteReq_mshr_misses::.cpu.data         3305                       # number of WriteReq MSHR misses
system.cpu.dcache.WriteReq_mshr_misses::total         3305                       # number of WriteReq MSHR misses
system.cpu.dcache.demand_mshr_misses::.cpu.data         7465                       # number of demand (read+write) MSHR misses
system.cpu.dcache.demand_mshr_misses::total         7465                       # number of demand (read+write) MSHR misses
system.cpu.dcache.overall_mshr_misses::.cpu.data         7465                       # number of overall MSHR misses
system.cpu.dcache.overall_mshr_misses::total         7465                       # number of overall MSHR misses
system.cpu.dcache.ReadReq_mshr_miss_latency::.cpu.data    254322000                       # number of ReadReq MSHR miss cycles
system.cpu.dcache.ReadReq_mshr_miss_latency::total    254322000                       # number of ReadReq MSHR miss cycles
system.cpu.dcache.WriteReq_mshr_miss_latency::.cpu.data    215294000                       # number of WriteReq MSHR miss cycles
system.cpu.dcache.WriteReq_mshr_miss_latency::total    215294000                       # number of WriteReq MSHR miss cycles
system.cpu.dcache.demand_mshr_miss_latency::.cpu.data    469616000                       # number of demand (read+write) MSHR miss cycles
system.cpu.dcache.demand_mshr_miss_latency::total    469616000                       # number of demand (read+write) MSHR miss cycles
system.cpu.dcache.overall_mshr_miss_latency::.cpu.data    469616000                       # number of overall MSHR miss cycles
system.cpu.dcache.overall_mshr_miss_latency::total    469616000                       # number of overall MSHR miss cycles
system.cpu.dcache.ReadReq_mshr_miss_rate::.cpu.data     0.009099                       # mshr miss rate for ReadReq accesses
system.cpu.dcache.ReadReq_mshr_miss_rate::total     0.009099                       # mshr miss rate for ReadReq accesses
system.cpu.dcache.WriteReq_mshr_miss_rate::.cpu.data     0.010705                       # mshr miss rate for WriteReq accesses
system.cpu.dcache.WriteReq_mshr_miss_rate::total     0.010705                       # mshr miss rate for WriteReq accesses
system.cpu.dcache.demand_mshr_miss_rate::.cpu.data     0.009746                       # mshr miss rate for demand accesses
system.cpu.dcache.demand_mshr_miss_rate::total     0.009746                       # mshr miss rate for demand accesses
system.cpu.dcache.overall_mshr_miss_rate::.cpu.data     0.009746                       # mshr miss rate for overall accesses
system.cpu.dcache.overall_mshr_miss_rate::total     0.009746                       # mshr miss rate for overall accesses
system.cpu.dcache.ReadReq_avg_mshr_miss_latency::.cpu.data 61135.096154                       # average ReadReq mshr miss latency
system.cpu.dcache.ReadReq_avg_mshr_miss_latency::total 61135.096154                       # average ReadReq mshr miss latency
system.cpu.dcache.WriteReq_avg_mshr_miss_latency::.cpu.data 65141.906203                       # average WriteReq mshr miss latency
system.cpu.dcache.WriteReq_avg_mshr_miss_latency::total 65141.906203                       # average WriteReq mshr miss latency
system.cpu.dcache.demand_avg_mshr_miss_latency::.cpu.data 62909.042197                       # average overall mshr miss latency
system.cpu.dcache.demand_avg_mshr_miss_latency::total 62909.042197                       # average overall mshr miss latency
system.cpu.dcache.overall_avg_mshr_miss_latency::.cpu.data 62909.042197                       # average overall mshr miss latency
system.cpu.dcache.overall_avg_mshr_miss_latency::total 62909.042197                       # average overall mshr miss latency
system.cpu.dcache.replacements                   7209                       # number of replacements
system.cpu.icache.tags.pwrStateResidencyTicks::UNDEFINED   6161070000                       # Cumulative time (in ticks) in various power states
system.cpu.icache.tags.tagsinuse           254.853272                       # Cycle average of tags in use
system.cpu.icache.tags.total_refs              763653                       # Total number of references to valid blocks.
system.cpu.icache.tags.sampled_refs              1078                       # Sample count of references to valid blocks.
system.cpu.icache.tags.avg_refs            708.397959                       # Average number of references to valid blocks.
system.cpu.icache.tags.warmup_cycle            113000                       # Cycle when the warmup percentage was hit.
system.cpu.icache.tags.occ_blocks::.cpu.inst   254.853272                       # Average occupied blocks per requestor
system.cpu.icache.tags.occ_percent::.cpu.inst     0.995521                       # Average percentage of cache occupancy
system.cpu.icache.tags.occ_percent::total     0.995521                       # Average percentage of cache occupancy
system.cpu.icache.tags.occ_task_id_blocks::1024          256                       # Occupied blocks per task id
system.cpu.icache.tags.age_task_id_blocks_1024::0           55                       # Occupied blocks per task id
system.cpu.icache.tags.age_task_id_blocks_1024::3          201                       # Occupied blocks per task id
system.cpu.icache.tags.occ_task_id_percent::1024            1                       # Percentage of cache occupancy per task id
system.cpu.icache.tags.tag_accesses           1528386                       # Number of tag accesses
system.cpu.icache.tags.data_accesses          1528386                       # Number of data accesses
system.cpu.icache.pwrStateResidencyTicks::UNDEFINED   6161070000                       # Cumulative time (in ticks) in various power states
system.cpu.icache.ReadReq_hits::.cpu.inst       762575                       # number of ReadReq hits
system.cpu.icache.ReadReq_hits::total          762575                       # number of ReadReq hits
system.cpu.icache.demand_hits::.cpu.inst       762575                       # number of demand (read+write) hits
system.cpu.icache.demand_hits::total           762575                       # number of demand (read+write) hits
system.cpu.icache.overall_hits::.cpu.inst       762575                       # number of overall hits
system.cpu.icache.overall_hits::total          762575                       # number of overall hits
system.cpu.icache.ReadReq_misses::.cpu.inst         1079                       # number of ReadReq misses
system.cpu.icache.ReadReq_misses::total          1079                       # number of ReadReq misses
system.cpu.icache.demand_misses::.cpu.inst         1079                       # number of demand (read+write) misses
system.cpu.icache.demand_misses::total           1079                       # number of demand (read+write) misses
system.cpu.icache.overall_misses::.cpu.inst         1079                       # number of overall misses
system.cpu.icache.overall_misses::total          1079                       # number of overall misses
system.cpu.icache.ReadReq_miss_latency::.cpu.inst    113366000                       # number of ReadReq miss cycles
system.cpu.icache.ReadReq_miss_latency::total    113366000                       # number of ReadReq miss cycles
system.cpu.icache.demand_miss_latency::.cpu.inst    113366000                       # number of demand (read+write) miss cycles
system.cpu.icache.demand_miss_latency::total    113366000                       # number of demand (read+write) miss cycles
system.cpu.icache.overall_miss_latency::.cpu.inst    113366000                       # number of overall miss cycles
system.cpu.icache.overall_miss_latency::total    113366000                       # number of overall miss cycles
system.cpu.icache.ReadReq_accesses::.cpu.inst       763654                       # number of ReadReq accesses(hits+misses)
system.cpu.icache.ReadReq_accesses::total       763654                       # number of ReadReq accesses(hits+misses)
system.cpu.icache.demand_accesses::.cpu.inst       763654                       # number of demand (read+write) accesses
system.cpu.icache.demand_accesses::total       763654                       # number of demand (read+write) accesses
system.cpu.icache.overall_accesses::.cpu.inst       763654                       # number of overall (read+write) accesses
system.cpu.icache.overall_accesses::total       763654                       # number of overall (read+write) accesses
system.cpu.icache.ReadReq_miss_rate::.cpu.inst     0.001413                       # miss rate for ReadReq accesses
system.cpu.icache.ReadReq_miss_rate::total     0.001413                       # miss rate for ReadReq accesses
system.cpu.icache.demand_miss_rate::.cpu.inst     0.001413                       # miss rate for demand accesses
system.cpu.icache.demand_miss_rate::total     0.001413                       # miss rate for demand accesses
system.cpu.icache.overall_miss_rate::.cpu.inst     0.001413                       # miss rate for overall accesses
system.cpu.icache.overall_miss_rate::total     0.001413                       # miss rate for overall accesses
system.cpu.icache.ReadReq_avg_miss_latency::.cpu.inst 105065.801668                       # average ReadReq miss latency
system.cpu.icache.ReadReq_avg_miss_latency::total 105065.801668                       # average ReadReq miss latency
system.cpu.icache.demand_avg_miss_latency::.cpu.inst 105065.801668                       # average overall miss latency
system.cpu.icache.demand_avg_miss_latency::total 105065.801668                       # average overall miss latency
system.cpu.icache.overall_avg_miss_latency::.cpu.inst 105065.801668                       # average overall miss latency
system.cpu.icache.overall_avg_miss_latency::total 105065.801668                       # average overall miss latency
system.cpu.icache.blocked_cycles::no_mshrs            0                       # number of cycles access was blocked
system.cpu.icache.blocked_cycles::no_targets            0                       # number of cycles access was blocked
system.cpu.icache.blocked::no_mshrs                 0                       # number of cycles access was blocked
system.cpu.icache.blocked::no_targets               0                       # number of cycles access was blocked
system.cpu.icache.avg_blocked_cycles::no_mshrs          nan                       # average number of cycles each access was blocked
system.cpu.icache.avg_blocked_cycles::no_targets          nan                       # average number of cycles each access was blocked
system.cpu.icache.ReadReq_mshr_misses::.cpu.inst         1079                       # number of ReadReq MSHR misses
system.cpu.icache.ReadReq_mshr_misses::total         1079                       # number of ReadReq MSHR misses
system.cpu.icache.demand_mshr_misses::.cpu.inst         1079                       # number of demand (read+write) MSHR misses
system.cpu.icache.demand_mshr_misses::total         1079                       # number of demand (read+write) MSHR misses
system.cpu.icache.overall_mshr_misses::.cpu.inst         1079                       # number of overall MSHR misses
system.cpu.icache.overall_mshr_misses::total         1079                       # number of overall MSHR misses
system.cpu.icache.ReadReq_mshr_miss_latency::.cpu.inst    111210000                       # number of ReadReq MSHR miss cycles
system.cpu.icache.ReadReq_mshr_miss_latency::total    111210000                       # number of ReadReq MSHR miss cycles
system.cpu.icache.demand_mshr_miss_latency::.cpu.inst    111210000                       # number of demand (read+write) MSHR miss cycles
system.cpu.icache.demand_mshr_miss_latency::total    111210000                       # number of demand (read+write) MSHR miss cycles
system.cpu.icache.overall_mshr_miss_latency::.cpu.inst    111210000                       # number of overall MSHR miss cycles
system.cpu.icache.overall_mshr_miss_latency::total    111210000                       # number of overall MSHR miss cycles
system.cpu.icache.ReadReq_mshr_miss_rate::.cpu.inst     0.001413                       # mshr miss rate for ReadReq accesses
system.cpu.icache.ReadReq_mshr_miss_rate::total     0.001413                       # mshr miss rate for ReadReq accesses
system.cpu.icache.demand_mshr_miss_rate::.cpu.inst     0.001413                       # mshr miss rate for demand accesses
system.cpu.icache.demand_mshr_miss_rate::total     0.001413                       # mshr miss rate for demand accesses
system.cpu.icache.overall_mshr_miss_rate::.cpu.inst     0.001413                       # mshr miss rate for overall accesses
system.cpu.icache.overall_mshr_miss_rate::total     0.001413                       # mshr miss rate for overall accesses
system.cpu.icache.ReadReq_avg_mshr_miss_latency::.cpu.inst 103067.655236                       # average ReadReq mshr miss latency
system.cpu.icache.ReadReq_avg_mshr_miss_latency::total 103067.655236                       # average ReadReq mshr miss latency
system.cpu.icache.demand_avg_mshr_miss_latency::.cpu.inst 103067.655236                       # average overall mshr miss latency
system.cpu.icache.demand_avg_mshr_miss_latency::total 103067.655236                       # average overall mshr miss latency
system.cpu.icache.overall_avg_mshr_miss_latency::.cpu.inst 103067.655236                       # average overall mshr miss latency
system.cpu.icache.overall_avg_mshr_miss_latency::total 103067.655236                       # average overall mshr miss latency
system.cpu.icache.replacements                    822                       # number of replacements
system.l2bus.snoop_filter.tot_requests          16575                       # Total number of requests made to the snoop filter.
system.l2bus.snoop_filter.hit_single_requests         8032                       # Number of requests hitting in the snoop filter with a single holder of the requested data.
system.l2bus.snoop_filter.hit_multi_requests            3                       # Number of requests hitting in the snoop filter with multiple (>1) holders of the requested data.
system.l2bus.snoop_filter.tot_snoops                1                       # Total number of snoops made to the snoop filter.
system.l2bus.snoop_filter.hit_single_snoops            1                       # Number of snoops hitting in the snoop filter with a single holder of the requested data.
system.l2bus.snoop_filter.hit_multi_snoops            0                       # Number of snoops hitting in the snoop filter with multiple (>1) holders of the requested data.
system.l2bus.pwrStateResidencyTicks::UNDEFINED   6161070000                       # Cumulative time (in ticks) in various power states
system.l2bus.trans_dist::ReadResp                5238                       # Transaction distribution
system.l2bus.trans_dist::WritebackDirty          6114                       # Transaction distribution
system.l2bus.trans_dist::CleanEvict              1975                       # Transaction distribution
system.l2bus.trans_dist::ReadExReq               3305                       # Transaction distribution
system.l2bus.trans_dist::ReadExResp              3305                       # Transaction distribution
system.l2bus.trans_dist::ReadSharedReq           5239                       # Transaction distribution
system.l2bus.pkt_count_system.cpu.icache.mem_side::system.l2cache.cpu_side         2979                       # Packet count per connected master and slave (bytes)
system.l2bus.pkt_count_system.cpu.dcache.mem_side::system.l2cache.cpu_side        22139                       # Packet count per connected master and slave (bytes)
system.l2bus.pkt_count::total                   25118                       # Packet count per connected master and slave (bytes)
system.l2bus.pkt_size_system.cpu.icache.mem_side::system.l2cache.cpu_side        68992                       # Cumulative packet size per connected master and slave (bytes)
system.l2bus.pkt_size_system.cpu.dcache.mem_side::system.l2cache.cpu_side       868736                       # Cumulative packet size per connected master and slave (bytes)
system.l2bus.pkt_size::total                   937728                       # Cumulative packet size per connected master and slave (bytes)
system.l2bus.snoops                                58                       # Total snoops (count)
system.l2bus.snoopTraffic                         320                       # Total snoop traffic (bytes)
system.l2bus.snoop_fanout::samples               8602                       # Request fanout histogram
system.l2bus.snoop_fanout::mean              0.000581                       # Request fanout histogram
system.l2bus.snoop_fanout::stdev             0.024104                       # Request fanout histogram
system.l2bus.snoop_fanout::underflows               0      0.00%      0.00% # Request fanout histogram
system.l2bus.snoop_fanout::0                     8597     99.94%     99.94% # Request fanout histogram
system.l2bus.snoop_fanout::1                        5      0.06%    100.00% # Request fanout histogram
system.l2bus.snoop_fanout::2                        0      0.00%    100.00% # Request fanout histogram
system.l2bus.snoop_fanout::overflows                0      0.00%    100.00% # Request fanout histogram
system.l2bus.snoop_fanout::min_value                0                       # Request fanout histogram
system.l2bus.snoop_fanout::max_value                1                       # Request fanout histogram
system.l2bus.snoop_fanout::total                 8602                       # Request fanout histogram
system.l2bus.reqLayer0.occupancy             28793000                       # Layer occupancy (ticks)
system.l2bus.reqLayer0.utilization                0.5                       # Layer utilization (%)
system.l2bus.respLayer0.occupancy             3234000                       # Layer occupancy (ticks)
system.l2bus.respLayer0.utilization               0.1                       # Layer utilization (%)
system.l2bus.respLayer1.occupancy            22395000                       # Layer occupancy (ticks)
system.l2bus.respLayer1.utilization               0.4                       # Layer utilization (%)
system.l2cache.tags.pwrStateResidencyTicks::UNDEFINED   6161070000                       # Cumulative time (in ticks) in various power states
system.l2cache.tags.tagsinuse             2680.287297                       # Cycle average of tags in use
system.l2cache.tags.total_refs                  16570                       # Total number of references to valid blocks.
system.l2cache.tags.sampled_refs                 3331                       # Sample count of references to valid blocks.
system.l2cache.tags.avg_refs                 4.974482                       # Average number of references to valid blocks.
system.l2cache.tags.warmup_cycle                92000                       # Cycle when the warmup percentage was hit.
system.l2cache.tags.occ_blocks::.cpu.inst   785.580781                       # Average occupied blocks per requestor
system.l2cache.tags.occ_blocks::.cpu.data  1894.706516                       # Average occupied blocks per requestor
system.l2cache.tags.occ_percent::.cpu.inst     0.191792                       # Average percentage of cache occupancy
system.l2cache.tags.occ_percent::.cpu.data     0.462575                       # Average percentage of cache occupancy
system.l2cache.tags.occ_percent::total       0.654367                       # Average percentage of cache occupancy
system.l2cache.tags.occ_task_id_blocks::1024         3273                       # Occupied blocks per task id
system.l2cache.tags.age_task_id_blocks_1024::0           56                       # Occupied blocks per task id
system.l2cache.tags.age_task_id_blocks_1024::2           95                       # Occupied blocks per task id
system.l2cache.tags.age_task_id_blocks_1024::3         3122                       # Occupied blocks per task id
system.l2cache.tags.occ_task_id_percent::1024     0.799072                       # Percentage of cache occupancy per task id
system.l2cache.tags.tag_accesses               135907                       # Number of tag accesses
system.l2cache.tags.data_accesses              135907                       # Number of data accesses
system.l2cache.pwrStateResidencyTicks::UNDEFINED   6161070000                       # Cumulative time (in ticks) in various power states
system.l2cache.WritebackDirty_hits::.writebacks         6109                       # number of WritebackDirty hits
system.l2cache.WritebackDirty_hits::total         6109                       # number of WritebackDirty hits
system.l2cache.ReadExReq_hits::.cpu.data         2356                       # number of ReadExReq hits
system.l2cache.ReadExReq_hits::total             2356                       # number of ReadExReq hits
system.l2cache.ReadSharedReq_hits::.cpu.inst          198                       # number of ReadSharedReq hits
system.l2cache.ReadSharedReq_hits::.cpu.data         2658                       # number of ReadSharedReq hits
system.l2cache.ReadSharedReq_hits::total         2856                       # number of ReadSharedReq hits
system.l2cache.demand_hits::.cpu.inst             198                       # number of demand (read+write) hits
system.l2cache.demand_hits::.cpu.data            5014                       # number of demand (read+write) hits
system.l2cache.demand_hits::total                5212                       # number of demand (read+write) hits
system.l2cache.overall_hits::.cpu.inst            198                       # number of overall hits
system.l2cache.overall_hits::.cpu.data           5014                       # number of overall hits
system.l2cache.overall_hits::total               5212                       # number of overall hits
system.l2cache.ReadExReq_misses::.cpu.data          949                       # number of ReadExReq misses
system.l2cache.ReadExReq_misses::total            949                       # number of ReadExReq misses
system.l2cache.ReadSharedReq_misses::.cpu.inst          881                       # number of ReadSharedReq misses
system.l2cache.ReadSharedReq_misses::.cpu.data         1502                       # number of ReadSharedReq misses
system.l2cache.ReadSharedReq_misses::total         2383                       # number of ReadSharedReq misses
system.l2cache.demand_misses::.cpu.inst           881                       # number of demand (read+write) misses
system.l2cache.demand_misses::.cpu.data          2451                       # number of demand (read+write) misses
system.l2cache.demand_misses::total              3332                       # number of demand (read+write) misses
system.l2cache.overall_misses::.cpu.inst          881                       # number of overall misses
system.l2cache.overall_misses::.cpu.data         2451                       # number of overall misses
system.l2cache.overall_misses::total             3332                       # number of overall misses
system.l2cache.ReadExReq_miss_latency::.cpu.data    155887000                       # number of ReadExReq miss cycles
system.l2cache.ReadExReq_miss_latency::total    155887000                       # number of ReadExReq miss cycles
system.l2cache.ReadSharedReq_miss_latency::.cpu.inst    103811000                       # number of ReadSharedReq miss cycles
system.l2cache.ReadSharedReq_miss_latency::.cpu.data    186006000                       # number of ReadSharedReq miss cycles
system.l2cache.ReadSharedReq_miss_latency::total    289817000                       # number of ReadSharedReq miss cycles
system.l2cache.demand_miss_latency::.cpu.inst    103811000                       # number of demand (read+write) miss cycles
system.l2cache.demand_miss_latency::.cpu.data    341893000                       # number of demand (read+write) miss cycles
system.l2cache.demand_miss_latency::total    445704000                       # number of demand (read+write) miss cycles
system.l2cache.overall_miss_latency::.cpu.inst    103811000                       # number of overall miss cycles
system.l2cache.overall_miss_latency::.cpu.data    341893000                       # number of overall miss cycles
system.l2cache.overall_miss_latency::total    445704000                       # number of overall miss cycles
system.l2cache.WritebackDirty_accesses::.writebacks         6109                       # number of WritebackDirty accesses(hits+misses)
system.l2cache.WritebackDirty_accesses::total         6109                       # number of WritebackDirty accesses(hits+misses)
system.l2cache.ReadExReq_accesses::.cpu.data         3305                       # number of ReadExReq accesses(hits+misses)
system.l2cache.ReadExReq_accesses::total         3305                       # number of ReadExReq accesses(hits+misses)
system.l2cache.ReadSharedReq_accesses::.cpu.inst         1079                       # number of ReadSharedReq accesses(hits+misses)
system.l2cache.ReadSharedReq_accesses::.cpu.data         4160                       # number of ReadSharedReq accesses(hits+misses)
system.l2cache.ReadSharedReq_accesses::total         5239                       # number of ReadSharedReq accesses(hits+misses)
system.l2cache.demand_accesses::.cpu.inst         1079                       # number of demand (read+write) accesses
system.l2cache.demand_accesses::.cpu.data         7465                       # number of demand (read+write) accesses
system.l2cache.demand_accesses::total            8544                       # number of demand (read+write) accesses
system.l2cache.overall_accesses::.cpu.inst         1079                       # number of overall (read+write) accesses
system.l2cache.overall_accesses::.cpu.data         7465                       # number of overall (read+write) accesses
system.l2cache.overall_accesses::total           8544                       # number of overall (read+write) accesses
system.l2cache.ReadExReq_miss_rate::.cpu.data     0.287141                       # miss rate for ReadExReq accesses
system.l2cache.ReadExReq_miss_rate::total     0.287141                       # miss rate for ReadExReq accesses
system.l2cache.ReadSharedReq_miss_rate::.cpu.inst     0.816497                       # miss rate for ReadSharedReq accesses
system.l2cache.ReadSharedReq_miss_rate::.cpu.data     0.361058                       # miss rate for ReadSharedReq accesses
system.l2cache.ReadSharedReq_miss_rate::total     0.454858                       # miss rate for ReadSharedReq accesses
system.l2cache.demand_miss_rate::.cpu.inst     0.816497                       # miss rate for demand accesses
system.l2cache.demand_miss_rate::.cpu.data     0.328332                       # miss rate for demand accesses
system.l2cache.demand_miss_rate::total       0.389981                       # miss rate for demand accesses
system.l2cache.overall_miss_rate::.cpu.inst     0.816497                       # miss rate for overall accesses
system.l2cache.overall_miss_rate::.cpu.data     0.328332                       # miss rate for overall accesses
system.l2cache.overall_miss_rate::total      0.389981                       # miss rate for overall accesses
system.l2cache.ReadExReq_avg_miss_latency::.cpu.data 164264.488936                       # average ReadExReq miss latency
system.l2cache.ReadExReq_avg_miss_latency::total 164264.488936                       # average ReadExReq miss latency
system.l2cache.ReadSharedReq_avg_miss_latency::.cpu.inst 117833.144154                       # average ReadSharedReq miss latency
system.l2cache.ReadSharedReq_avg_miss_latency::.cpu.data 123838.881491                       # average ReadSharedReq miss latency
system.l2cache.ReadSharedReq_avg_miss_latency::total 121618.548049                       # average ReadSharedReq miss latency
system.l2cache.demand_avg_miss_latency::.cpu.inst 117833.144154                       # average overall miss latency
system.l2cache.demand_avg_miss_latency::.cpu.data 139491.228070                       # average overall miss latency
system.l2cache.demand_avg_miss_latency::total 133764.705882                       # average overall miss latency
system.l2cache.overall_avg_miss_latency::.cpu.inst 117833.144154                       # average overall miss latency
system.l2cache.overall_avg_miss_latency::.cpu.data 139491.228070                       # average overall miss latency
system.l2cache.overall_avg_miss_latency::total 133764.705882                       # average overall miss latency
system.l2cache.blocked_cycles::no_mshrs             0                       # number of cycles access was blocked
system.l2cache.blocked_cycles::no_targets            0                       # number of cycles access was blocked
system.l2cache.blocked::no_mshrs                    0                       # number of cycles access was blocked
system.l2cache.blocked::no_targets                  0                       # number of cycles access was blocked
system.l2cache.avg_blocked_cycles::no_mshrs          nan                       # average number of cycles each access was blocked
system.l2cache.avg_blocked_cycles::no_targets          nan                       # average number of cycles each access was blocked
system.l2cache.writebacks::.writebacks              5                       # number of writebacks
system.l2cache.writebacks::total                    5                       # number of writebacks
system.l2cache.CleanEvict_mshr_misses::.writebacks            1                       # number of CleanEvict MSHR misses
system.l2cache.CleanEvict_mshr_misses::total            1                       # number of CleanEvict MSHR misses
system.l2cache.ReadExReq_mshr_misses::.cpu.data          949                       # number of ReadExReq MSHR misses
system.l2cache.ReadExReq_mshr_misses::total          949                       # number of ReadExReq MSHR misses
system.l2cache.ReadSharedReq_mshr_misses::.cpu.inst          881                       # number of ReadSharedReq MSHR misses
system.l2cache.ReadSharedReq_mshr_misses::.cpu.data         1502                       # number of ReadSharedReq MSHR misses
system.l2cache.ReadSharedReq_mshr_misses::total         2383                       # number of ReadSharedReq MSHR misses
system.l2cache.demand_mshr_misses::.cpu.inst          881                       # number of demand (read+write) MSHR misses
system.l2cache.demand_mshr_misses::.cpu.data         2451                       # number of demand (read+write) MSHR misses
system.l2cache.demand_mshr_misses::total         3332                       # number of demand (read+write) MSHR misses
system.l2cache.overall_mshr_misses::.cpu.inst          881                       # number of overall MSHR misses
system.l2cache.overall_mshr_misses::.cpu.data         2451                       # number of overall MSHR misses
system.l2cache.overall_mshr_misses::total         3332                       # number of overall MSHR misses
system.l2cache.ReadExReq_mshr_miss_latency::.cpu.data    136907000                       # number of ReadExReq MSHR miss cycles
system.l2cache.ReadExReq_mshr_miss_latency::total    136907000                       # number of ReadExReq MSHR miss cycles
system.l2cache.ReadSharedReq_mshr_miss_latency::.cpu.inst     86211000                       # number of ReadSharedReq MSHR miss cycles
system.l2cache.ReadSharedReq_mshr_miss_latency::.cpu.data    155966000                       # number of ReadSharedReq MSHR miss cycles
system.l2cache.ReadSharedReq_mshr_miss_latency::total    242177000                       # number of ReadSharedReq MSHR miss cycles
system.l2cache.demand_mshr_miss_latency::.cpu.inst     86211000                       # number of demand (read+write) MSHR miss cycles
system.l2cache.demand_mshr_miss_latency::.cpu.data    292873000                       # number of demand (read+write) MSHR miss cycles
system.l2cache.demand_mshr_miss_latency::total    379084000                       # number of demand (read+write) MSHR miss cycles
system.l2cache.overall_mshr_miss_latency::.cpu.inst     86211000                       # number of overall MSHR miss cycles
system.l2cache.overall_mshr_miss_latency::.cpu.data    292873000                       # number of overall MSHR miss cycles
system.l2cache.overall_mshr_miss_latency::total    379084000                       # number of overall MSHR miss cycles
system.l2cache.CleanEvict_mshr_miss_rate::.writebacks          inf                       # mshr miss rate for CleanEvict accesses
system.l2cache.CleanEvict_mshr_miss_rate::total          inf                       # mshr miss rate for CleanEvict accesses
system.l2cache.ReadExReq_mshr_miss_rate::.cpu.data     0.287141                       # mshr miss rate for ReadExReq accesses
system.l2cache.ReadExReq_mshr_miss_rate::total     0.287141                       # mshr miss rate for ReadExReq accesses
system.l2cache.ReadSharedReq_mshr_miss_rate::.cpu.inst     0.816497                       # mshr miss rate for ReadSharedReq accesses
system.l2cache.ReadSharedReq_mshr_miss_rate::.cpu.data     0.361058                       # mshr miss rate for ReadSharedReq accesses
system.l2cache.ReadSharedReq_mshr_miss_rate::total     0.454858                       # mshr miss rate for ReadSharedReq accesses
system.l2cache.demand_mshr_miss_rate::.cpu.inst     0.816497                       # mshr miss rate for demand accesses
system.l2cache.demand_mshr_miss_rate::.cpu.data     0.328332                       # mshr miss rate for demand accesses
system.l2cache.demand_mshr_miss_rate::total     0.389981                       # mshr miss rate for demand accesses
system.l2cache.overall_mshr_miss_rate::.cpu.inst     0.816497                       # mshr miss rate for overall accesses
system.l2cache.overall_mshr_miss_rate::.cpu.data     0.328332                       # mshr miss rate for overall accesses
system.l2cache.overall_mshr_miss_rate::total     0.389981                       # mshr miss rate for overall accesses
system.l2cache.ReadExReq_avg_mshr_miss_latency::.cpu.data 144264.488936                       # average ReadExReq mshr miss latency
system.l2cache.ReadExReq_avg_mshr_miss_latency::total 144264.488936                       # average ReadExReq mshr miss latency
system.l2cache.ReadSharedReq_avg_mshr_miss_latency::.cpu.inst 97855.845630                       # average ReadSharedReq mshr miss latency
system.l2cache.ReadSharedReq_avg_mshr_miss_latency::.cpu.data 103838.881491                       # average ReadSharedReq mshr miss latency
system.l2cache.ReadSharedReq_avg_mshr_miss_latency::total 101626.940831                       # average ReadSharedReq mshr miss latency
system.l2cache.demand_avg_mshr_miss_latency::.cpu.inst 97855.845630                       # average overall mshr miss latency
system.l2cache.demand_avg_mshr_miss_latency::.cpu.data 119491.228070                       # average overall mshr miss latency
system.l2cache.demand_avg_mshr_miss_latency::total 113770.708283                       # average overall mshr miss latency
system.l2cache.overall_avg_mshr_miss_latency::.cpu.inst 97855.845630                       # average overall mshr miss latency
system.l2cache.overall_avg_mshr_miss_latency::.cpu.data 119491.228070                       # average overall mshr miss latency
system.l2cache.overall_avg_mshr_miss_latency::total 113770.708283                       # average overall mshr miss latency
system.l2cache.replacements                        58                       # number of replacements
system.membus.snoop_filter.tot_requests          3389                       # Total number of requests made to the snoop filter.
system.membus.snoop_filter.hit_single_requests           58                       # Number of requests hitting in the snoop filter with a single holder of the requested data.
system.membus.snoop_filter.hit_multi_requests            0                       # Number of requests hitting in the snoop filter with multiple (>1) holders of the requested data.
system.membus.snoop_filter.tot_snoops               0                       # Total number of snoops made to the snoop filter.
system.membus.snoop_filter.hit_single_snoops            0                       # Number of snoops hitting in the snoop filter with a single holder of the requested data.
system.membus.snoop_filter.hit_multi_snoops            0                       # Number of snoops hitting in the snoop filter with multiple (>1) holders of the requested data.
system.membus.pwrStateResidencyTicks::UNDEFINED   6161070000                       # Cumulative time (in ticks) in various power states
system.membus.trans_dist::ReadResp               2382                       # Transaction distribution
system.membus.trans_dist::WritebackDirty            5                       # Transaction distribution
system.membus.trans_dist::CleanEvict               53                       # Transaction distribution
system.membus.trans_dist::ReadExReq               949                       # Transaction distribution
system.membus.trans_dist::ReadExResp              949                       # Transaction distribution
system.membus.trans_dist::ReadSharedReq          2382                       # Transaction distribution
system.membus.pkt_count_system.l2cache.mem_side::system.mem_ctrl.port         6720                       # Packet count per connected master and slave (bytes)
system.membus.pkt_count_system.l2cache.mem_side::total         6720                       # Packet count per connected master and slave (bytes)
system.membus.pkt_count::total                   6720                       # Packet count per connected master and slave (bytes)
system.membus.pkt_size_system.l2cache.mem_side::system.mem_ctrl.port       213504                       # Cumulative packet size per connected master and slave (bytes)
system.membus.pkt_size_system.l2cache.mem_side::total       213504                       # Cumulative packet size per connected master and slave (bytes)
system.membus.pkt_size::total                  213504                       # Cumulative packet size per connected master and slave (bytes)
system.membus.snoops                                0                       # Total snoops (count)
system.membus.snoopTraffic                          0                       # Total snoop traffic (bytes)
system.membus.snoop_fanout::samples              3331                       # Request fanout histogram
system.membus.snoop_fanout::mean                    0                       # Request fanout histogram
system.membus.snoop_fanout::stdev                   0                       # Request fanout histogram
system.membus.snoop_fanout::underflows              0      0.00%      0.00% # Request fanout histogram
system.membus.snoop_fanout::0                    3331    100.00%    100.00% # Request fanout histogram
system.membus.snoop_fanout::1                       0      0.00%    100.00% # Request fanout histogram
system.membus.snoop_fanout::overflows               0      0.00%    100.00% # Request fanout histogram
system.membus.snoop_fanout::min_value               0                       # Request fanout histogram
system.membus.snoop_fanout::max_value               0                       # Request fanout histogram
system.membus.snoop_fanout::total                3331                       # Request fanout histogram
system.membus.reqLayer2.occupancy             3409000                       # Layer occupancy (ticks)
system.membus.reqLayer2.utilization               0.1                       # Layer utilization (%)
system.membus.respLayer0.occupancy           16664500                       # Layer occupancy (ticks)
system.membus.respLayer0.utilization              0.3                       # Layer utilization (%)

---------- End Simulation Statistics   ----------
