
---------- Begin Simulation Statistics ----------
sim_seconds                                  0.017395                       # Number of seconds simulated
sim_ticks                                 17394865753                       # Number of ticks simulated
final_tick                                17394865753                       # Number of ticks from beginning of simulation (restored from checkpoints and never reset)
sim_freq                                 1000000000000                       # Frequency of simulated ticks
host_inst_rate                                  33830                       # Simulator instruction rate (inst/s)
host_op_rate                                    55607                       # Simulator op (including micro ops) rate (op/s)
host_tick_rate                               47498141                       # Simulator tick rate (ticks/s)
host_mem_usage                                 677616                       # Number of bytes of host memory used
host_seconds                                   366.22                       # Real time elapsed on the host
sim_insts                                    12389443                       # Number of instructions simulated
sim_ops                                      20364675                       # Number of ops (including micro ops) simulated
system.voltage_domain.voltage                       1                       # Voltage in Volts
system.clk_domain.clock                           667                       # Clock period in ticks
system.mem_ctrls.pwrStateResidencyTicks::UNDEFINED  17394865753                       # Cumulative time (in ticks) in various power states
system.mem_ctrls.bytes_read::.cpu.inst          69184                       # Number of bytes read from this memory
system.mem_ctrls.bytes_read::.cpu.data        1153088                       # Number of bytes read from this memory
system.mem_ctrls.bytes_read::total            1222272                       # Number of bytes read from this memory
system.mem_ctrls.bytes_inst_read::.cpu.inst        69184                       # Number of instructions bytes read from this memory
system.mem_ctrls.bytes_inst_read::total         69184                       # Number of instructions bytes read from this memory
system.mem_ctrls.num_reads::.cpu.inst            1081                       # Number of read requests responded to by this memory
system.mem_ctrls.num_reads::.cpu.data           18017                       # Number of read requests responded to by this memory
system.mem_ctrls.num_reads::total               19098                       # Number of read requests responded to by this memory
system.mem_ctrls.bw_read::.cpu.inst           3977266                       # Total read bandwidth from this memory (bytes/s)
system.mem_ctrls.bw_read::.cpu.data          66288985                       # Total read bandwidth from this memory (bytes/s)
system.mem_ctrls.bw_read::total              70266251                       # Total read bandwidth from this memory (bytes/s)
system.mem_ctrls.bw_inst_read::.cpu.inst      3977266                       # Instruction read bandwidth from this memory (bytes/s)
system.mem_ctrls.bw_inst_read::total          3977266                       # Instruction read bandwidth from this memory (bytes/s)
system.mem_ctrls.bw_total::.cpu.inst          3977266                       # Total bandwidth to/from this memory (bytes/s)
system.mem_ctrls.bw_total::.cpu.data         66288985                       # Total bandwidth to/from this memory (bytes/s)
system.mem_ctrls.bw_total::total             70266251                       # Total bandwidth to/from this memory (bytes/s)
system.mem_ctrls.avgPriority_.cpu.inst::samples      1081.00                       # Average QoS priority value for accepted requests
system.mem_ctrls.avgPriority_.cpu.data::samples     18017.00                       # Average QoS priority value for accepted requests
system.mem_ctrls.priorityMinLatency      0.000000018750                       # per QoS priority minimum request to response latency (s)
system.mem_ctrls.priorityMaxLatency      0.000001099750                       # per QoS priority maximum request to response latency (s)
system.mem_ctrls.numReadWriteTurnArounds            0                       # Number of turnarounds from READ to WRITE
system.mem_ctrls.numWriteReadTurnArounds            0                       # Number of turnarounds from WRITE to READ
system.mem_ctrls.numStayReadState               38497                       # Number of times bus staying in READ state
system.mem_ctrls.numStayWriteState                  0                       # Number of times bus staying in WRITE state
system.mem_ctrls.readReqs                       19098                       # Number of read requests accepted
system.mem_ctrls.writeReqs                          0                       # Number of write requests accepted
system.mem_ctrls.readBursts                     19098                       # Number of DRAM read bursts, including those serviced by the write queue
system.mem_ctrls.writeBursts                        0                       # Number of DRAM write bursts, including those merged in the write queue
system.mem_ctrls.bytesReadDRAM                1222272                       # Total number of bytes read from DRAM
system.mem_ctrls.bytesReadWrQ                       0                       # Total number of bytes read from write queue
system.mem_ctrls.bytesWritten                       0                       # Total number of bytes written to DRAM
system.mem_ctrls.bytesReadSys                 1222272                       # Total read bytes from the system interface side
system.mem_ctrls.bytesWrittenSys                    0                       # Total written bytes from the system interface side
system.mem_ctrls.servicedByWrQ                      0                       # Number of DRAM read bursts serviced by the write queue
system.mem_ctrls.mergedWrBursts                     0                       # Number of DRAM write bursts merged with an existing one
system.mem_ctrls.neitherReadNorWriteReqs            0                       # Number of requests that are neither read nor write
system.mem_ctrls.perBankRdBursts::0              1229                       # Per bank write bursts
system.mem_ctrls.perBankRdBursts::1              1186                       # Per bank write bursts
system.mem_ctrls.perBankRdBursts::2              1216                       # Per bank write bursts
system.mem_ctrls.perBankRdBursts::3              1260                       # Per bank write bursts
system.mem_ctrls.perBankRdBursts::4              1183                       # Per bank write bursts
system.mem_ctrls.perBankRdBursts::5              1069                       # Per bank write bursts
system.mem_ctrls.perBankRdBursts::6              1100                       # Per bank write bursts
system.mem_ctrls.perBankRdBursts::7              1089                       # Per bank write bursts
system.mem_ctrls.perBankRdBursts::8              1208                       # Per bank write bursts
system.mem_ctrls.perBankRdBursts::9              1249                       # Per bank write bursts
system.mem_ctrls.perBankRdBursts::10             1244                       # Per bank write bursts
system.mem_ctrls.perBankRdBursts::11             1190                       # Per bank write bursts
system.mem_ctrls.perBankRdBursts::12             1167                       # Per bank write bursts
system.mem_ctrls.perBankRdBursts::13             1256                       # Per bank write bursts
system.mem_ctrls.perBankRdBursts::14             1213                       # Per bank write bursts
system.mem_ctrls.perBankRdBursts::15             1239                       # Per bank write bursts
system.mem_ctrls.perBankWrBursts::0                 0                       # Per bank write bursts
system.mem_ctrls.perBankWrBursts::1                 0                       # Per bank write bursts
system.mem_ctrls.perBankWrBursts::2                 0                       # Per bank write bursts
system.mem_ctrls.perBankWrBursts::3                 0                       # Per bank write bursts
system.mem_ctrls.perBankWrBursts::4                 0                       # Per bank write bursts
system.mem_ctrls.perBankWrBursts::5                 0                       # Per bank write bursts
system.mem_ctrls.perBankWrBursts::6                 0                       # Per bank write bursts
system.mem_ctrls.perBankWrBursts::7                 0                       # Per bank write bursts
system.mem_ctrls.perBankWrBursts::8                 0                       # Per bank write bursts
system.mem_ctrls.perBankWrBursts::9                 0                       # Per bank write bursts
system.mem_ctrls.perBankWrBursts::10                0                       # Per bank write bursts
system.mem_ctrls.perBankWrBursts::11                0                       # Per bank write bursts
system.mem_ctrls.perBankWrBursts::12                0                       # Per bank write bursts
system.mem_ctrls.perBankWrBursts::13                0                       # Per bank write bursts
system.mem_ctrls.perBankWrBursts::14                0                       # Per bank write bursts
system.mem_ctrls.perBankWrBursts::15                0                       # Per bank write bursts
system.mem_ctrls.numRdRetry                         0                       # Number of times read queue was full causing retry
system.mem_ctrls.numWrRetry                         0                       # Number of times write queue was full causing retry
system.mem_ctrls.totGap                   17394775708                       # Total gap between requests
system.mem_ctrls.readPktSize::0                     0                       # Read request sizes (log2)
system.mem_ctrls.readPktSize::1                     0                       # Read request sizes (log2)
system.mem_ctrls.readPktSize::2                     0                       # Read request sizes (log2)
system.mem_ctrls.readPktSize::3                     0                       # Read request sizes (log2)
system.mem_ctrls.readPktSize::4                     0                       # Read request sizes (log2)
system.mem_ctrls.readPktSize::5                     0                       # Read request sizes (log2)
system.mem_ctrls.readPktSize::6                 19098                       # Read request sizes (log2)
system.mem_ctrls.writePktSize::0                    0                       # Write request sizes (log2)
system.mem_ctrls.writePktSize::1                    0                       # Write request sizes (log2)
system.mem_ctrls.writePktSize::2                    0                       # Write request sizes (log2)
system.mem_ctrls.writePktSize::3                    0                       # Write request sizes (log2)
system.mem_ctrls.writePktSize::4                    0                       # Write request sizes (log2)
system.mem_ctrls.writePktSize::5                    0                       # Write request sizes (log2)
system.mem_ctrls.writePktSize::6                    0                       # Write request sizes (log2)
system.mem_ctrls.rdQLenPdf::0                   17888                       # What read queue length does an incoming req see
system.mem_ctrls.rdQLenPdf::1                     850                       # What read queue length does an incoming req see
system.mem_ctrls.rdQLenPdf::2                     286                       # What read queue length does an incoming req see
system.mem_ctrls.rdQLenPdf::3                      71                       # What read queue length does an incoming req see
system.mem_ctrls.rdQLenPdf::4                       3                       # What read queue length does an incoming req see
system.mem_ctrls.rdQLenPdf::5                       0                       # What read queue length does an incoming req see
system.mem_ctrls.rdQLenPdf::6                       0                       # What read queue length does an incoming req see
system.mem_ctrls.rdQLenPdf::7                       0                       # What read queue length does an incoming req see
system.mem_ctrls.rdQLenPdf::8                       0                       # What read queue length does an incoming req see
system.mem_ctrls.rdQLenPdf::9                       0                       # What read queue length does an incoming req see
system.mem_ctrls.rdQLenPdf::10                      0                       # What read queue length does an incoming req see
system.mem_ctrls.rdQLenPdf::11                      0                       # What read queue length does an incoming req see
system.mem_ctrls.rdQLenPdf::12                      0                       # What read queue length does an incoming req see
system.mem_ctrls.rdQLenPdf::13                      0                       # What read queue length does an incoming req see
system.mem_ctrls.rdQLenPdf::14                      0                       # What read queue length does an incoming req see
system.mem_ctrls.rdQLenPdf::15                      0                       # What read queue length does an incoming req see
system.mem_ctrls.rdQLenPdf::16                      0                       # What read queue length does an incoming req see
system.mem_ctrls.rdQLenPdf::17                      0                       # What read queue length does an incoming req see
system.mem_ctrls.rdQLenPdf::18                      0                       # What read queue length does an incoming req see
system.mem_ctrls.rdQLenPdf::19                      0                       # What read queue length does an incoming req see
system.mem_ctrls.rdQLenPdf::20                      0                       # What read queue length does an incoming req see
system.mem_ctrls.rdQLenPdf::21                      0                       # What read queue length does an incoming req see
system.mem_ctrls.rdQLenPdf::22                      0                       # What read queue length does an incoming req see
system.mem_ctrls.rdQLenPdf::23                      0                       # What read queue length does an incoming req see
system.mem_ctrls.rdQLenPdf::24                      0                       # What read queue length does an incoming req see
system.mem_ctrls.rdQLenPdf::25                      0                       # What read queue length does an incoming req see
system.mem_ctrls.rdQLenPdf::26                      0                       # What read queue length does an incoming req see
system.mem_ctrls.rdQLenPdf::27                      0                       # What read queue length does an incoming req see
system.mem_ctrls.rdQLenPdf::28                      0                       # What read queue length does an incoming req see
system.mem_ctrls.rdQLenPdf::29                      0                       # What read queue length does an incoming req see
system.mem_ctrls.rdQLenPdf::30                      0                       # What read queue length does an incoming req see
system.mem_ctrls.rdQLenPdf::31                      0                       # What read queue length does an incoming req see
system.mem_ctrls.wrQLenPdf::0                       0                       # What write queue length does an incoming req see
system.mem_ctrls.wrQLenPdf::1                       0                       # What write queue length does an incoming req see
system.mem_ctrls.wrQLenPdf::2                       0                       # What write queue length does an incoming req see
system.mem_ctrls.wrQLenPdf::3                       0                       # What write queue length does an incoming req see
system.mem_ctrls.wrQLenPdf::4                       0                       # What write queue length does an incoming req see
system.mem_ctrls.wrQLenPdf::5                       0                       # What write queue length does an incoming req see
system.mem_ctrls.wrQLenPdf::6                       0                       # What write queue length does an incoming req see
system.mem_ctrls.wrQLenPdf::7                       0                       # What write queue length does an incoming req see
system.mem_ctrls.wrQLenPdf::8                       0                       # What write queue length does an incoming req see
system.mem_ctrls.wrQLenPdf::9                       0                       # What write queue length does an incoming req see
system.mem_ctrls.wrQLenPdf::10                      0                       # What write queue length does an incoming req see
system.mem_ctrls.wrQLenPdf::11                      0                       # What write queue length does an incoming req see
system.mem_ctrls.wrQLenPdf::12                      0                       # What write queue length does an incoming req see
system.mem_ctrls.wrQLenPdf::13                      0                       # What write queue length does an incoming req see
system.mem_ctrls.wrQLenPdf::14                      0                       # What write queue length does an incoming req see
system.mem_ctrls.wrQLenPdf::15                      0                       # What write queue length does an incoming req see
system.mem_ctrls.wrQLenPdf::16                      0                       # What write queue length does an incoming req see
system.mem_ctrls.wrQLenPdf::17                      0                       # What write queue length does an incoming req see
system.mem_ctrls.wrQLenPdf::18                      0                       # What write queue length does an incoming req see
system.mem_ctrls.wrQLenPdf::19                      0                       # What write queue length does an incoming req see
system.mem_ctrls.wrQLenPdf::20                      0                       # What write queue length does an incoming req see
system.mem_ctrls.wrQLenPdf::21                      0                       # What write queue length does an incoming req see
system.mem_ctrls.wrQLenPdf::22                      0                       # What write queue length does an incoming req see
system.mem_ctrls.wrQLenPdf::23                      0                       # What write queue length does an incoming req see
system.mem_ctrls.wrQLenPdf::24                      0                       # What write queue length does an incoming req see
system.mem_ctrls.wrQLenPdf::25                      0                       # What write queue length does an incoming req see
system.mem_ctrls.wrQLenPdf::26                      0                       # What write queue length does an incoming req see
system.mem_ctrls.wrQLenPdf::27                      0                       # What write queue length does an incoming req see
system.mem_ctrls.wrQLenPdf::28                      0                       # What write queue length does an incoming req see
system.mem_ctrls.wrQLenPdf::29                      0                       # What write queue length does an incoming req see
system.mem_ctrls.wrQLenPdf::30                      0                       # What write queue length does an incoming req see
system.mem_ctrls.wrQLenPdf::31                      0                       # What write queue length does an incoming req see
system.mem_ctrls.wrQLenPdf::32                      0                       # What write queue length does an incoming req see
system.mem_ctrls.wrQLenPdf::33                      0                       # What write queue length does an incoming req see
system.mem_ctrls.wrQLenPdf::34                      0                       # What write queue length does an incoming req see
system.mem_ctrls.wrQLenPdf::35                      0                       # What write queue length does an incoming req see
system.mem_ctrls.wrQLenPdf::36                      0                       # What write queue length does an incoming req see
system.mem_ctrls.wrQLenPdf::37                      0                       # What write queue length does an incoming req see
system.mem_ctrls.wrQLenPdf::38                      0                       # What write queue length does an incoming req see
system.mem_ctrls.wrQLenPdf::39                      0                       # What write queue length does an incoming req see
system.mem_ctrls.wrQLenPdf::40                      0                       # What write queue length does an incoming req see
system.mem_ctrls.wrQLenPdf::41                      0                       # What write queue length does an incoming req see
system.mem_ctrls.wrQLenPdf::42                      0                       # What write queue length does an incoming req see
system.mem_ctrls.wrQLenPdf::43                      0                       # What write queue length does an incoming req see
system.mem_ctrls.wrQLenPdf::44                      0                       # What write queue length does an incoming req see
system.mem_ctrls.wrQLenPdf::45                      0                       # What write queue length does an incoming req see
system.mem_ctrls.wrQLenPdf::46                      0                       # What write queue length does an incoming req see
system.mem_ctrls.wrQLenPdf::47                      0                       # What write queue length does an incoming req see
system.mem_ctrls.wrQLenPdf::48                      0                       # What write queue length does an incoming req see
system.mem_ctrls.wrQLenPdf::49                      0                       # What write queue length does an incoming req see
system.mem_ctrls.wrQLenPdf::50                      0                       # What write queue length does an incoming req see
system.mem_ctrls.wrQLenPdf::51                      0                       # What write queue length does an incoming req see
system.mem_ctrls.wrQLenPdf::52                      0                       # What write queue length does an incoming req see
system.mem_ctrls.wrQLenPdf::53                      0                       # What write queue length does an incoming req see
system.mem_ctrls.wrQLenPdf::54                      0                       # What write queue length does an incoming req see
system.mem_ctrls.wrQLenPdf::55                      0                       # What write queue length does an incoming req see
system.mem_ctrls.wrQLenPdf::56                      0                       # What write queue length does an incoming req see
system.mem_ctrls.wrQLenPdf::57                      0                       # What write queue length does an incoming req see
system.mem_ctrls.wrQLenPdf::58                      0                       # What write queue length does an incoming req see
system.mem_ctrls.wrQLenPdf::59                      0                       # What write queue length does an incoming req see
system.mem_ctrls.wrQLenPdf::60                      0                       # What write queue length does an incoming req see
system.mem_ctrls.wrQLenPdf::61                      0                       # What write queue length does an incoming req see
system.mem_ctrls.wrQLenPdf::62                      0                       # What write queue length does an incoming req see
system.mem_ctrls.wrQLenPdf::63                      0                       # What write queue length does an incoming req see
system.mem_ctrls.bytesPerActivate::samples         1678                       # Bytes accessed per row activation
system.mem_ctrls.bytesPerActivate::mean    727.265793                       # Bytes accessed per row activation
system.mem_ctrls.bytesPerActivate::gmean   537.658650                       # Bytes accessed per row activation
system.mem_ctrls.bytesPerActivate::stdev   377.068825                       # Bytes accessed per row activation
system.mem_ctrls.bytesPerActivate::0-127          196     11.68%     11.68% # Bytes accessed per row activation
system.mem_ctrls.bytesPerActivate::128-255          135      8.05%     19.73% # Bytes accessed per row activation
system.mem_ctrls.bytesPerActivate::256-383           95      5.66%     25.39% # Bytes accessed per row activation
system.mem_ctrls.bytesPerActivate::384-511           70      4.17%     29.56% # Bytes accessed per row activation
system.mem_ctrls.bytesPerActivate::512-639           49      2.92%     32.48% # Bytes accessed per row activation
system.mem_ctrls.bytesPerActivate::640-767           53      3.16%     35.64% # Bytes accessed per row activation
system.mem_ctrls.bytesPerActivate::768-895          167      9.95%     45.59% # Bytes accessed per row activation
system.mem_ctrls.bytesPerActivate::896-1023           38      2.26%     47.85% # Bytes accessed per row activation
system.mem_ctrls.bytesPerActivate::1024-1151          875     52.15%    100.00% # Bytes accessed per row activation
system.mem_ctrls.bytesPerActivate::total         1678                       # Bytes accessed per row activation
system.mem_ctrls.masterReadBytes::.cpu.inst        69184                       # Per-master bytes read from memory
system.mem_ctrls.masterReadBytes::.cpu.data      1153088                       # Per-master bytes read from memory
system.mem_ctrls.masterReadRate::.cpu.inst 3977265.532392406836                       # Per-master bytes read from memory rate (Bytes/sec)
system.mem_ctrls.masterReadRate::.cpu.data 66288985.288727104664                       # Per-master bytes read from memory rate (Bytes/sec)
system.mem_ctrls.masterReadAccesses::.cpu.inst         1081                       # Per-master read serviced memory accesses
system.mem_ctrls.masterReadAccesses::.cpu.data        18017                       # Per-master read serviced memory accesses
system.mem_ctrls.masterReadTotalLat::.cpu.inst     36612767                       # Per-master read total memory access latency
system.mem_ctrls.masterReadTotalLat::.cpu.data    527754383                       # Per-master read total memory access latency
system.mem_ctrls.masterReadAvgLat::.cpu.inst     33869.35                       # Per-master read average memory access latency
system.mem_ctrls.masterReadAvgLat::.cpu.data     29292.02                       # Per-master read average memory access latency
system.mem_ctrls.totQLat                    206279650                       # Total ticks spent queuing
system.mem_ctrls.totMemAccLat               564367150                       # Total ticks spent from burst creation until serviced by the DRAM
system.mem_ctrls.totBusLat                   95490000                       # Total ticks spent in databus transfers
system.mem_ctrls.avgQLat                     10801.11                       # Average queueing delay per DRAM burst
system.mem_ctrls.avgBusLat                    5000.00                       # Average bus latency per DRAM burst
system.mem_ctrls.avgMemAccLat                29551.11                       # Average memory access latency per DRAM burst
system.mem_ctrls.avgRdBW                        70.27                       # Average DRAM read bandwidth in MiByte/s
system.mem_ctrls.avgWrBW                         0.00                       # Average achieved write bandwidth in MiByte/s
system.mem_ctrls.avgRdBWSys                     70.27                       # Average system read bandwidth in MiByte/s
system.mem_ctrls.avgWrBWSys                      0.00                       # Average system write bandwidth in MiByte/s
system.mem_ctrls.peakBW                      12800.00                       # Theoretical peak bandwidth in MiByte/s
system.mem_ctrls.busUtil                         0.55                       # Data bus utilization in percentage
system.mem_ctrls.busUtilRead                     0.55                       # Data bus utilization in percentage for reads
system.mem_ctrls.busUtilWrite                    0.00                       # Data bus utilization in percentage for writes
system.mem_ctrls.avgRdQLen                       1.09                       # Average read queue length when enqueuing
system.mem_ctrls.avgWrQLen                       0.00                       # Average write queue length when enqueuing
system.mem_ctrls.readRowHits                    17408                       # Number of row buffer hits during reads
system.mem_ctrls.writeRowHits                       0                       # Number of row buffer hits during writes
system.mem_ctrls.readRowHitRate                 91.15                       # Row buffer hit rate for reads
system.mem_ctrls.writeRowHitRate                  nan                       # Row buffer hit rate for writes
system.mem_ctrls.avgGap                     910816.61                       # Average gap between requests
system.mem_ctrls.pageHitRate                    91.15                       # Row buffer hit rate, read and write combined
system.mem_ctrls_0.actEnergy                  6183240                       # Energy for activate commands per rank (pJ)
system.mem_ctrls_0.preEnergy                  3256110                       # Energy for precharge commands per rank (pJ)
system.mem_ctrls_0.readEnergy                66630480                       # Energy for read commands per rank (pJ)
system.mem_ctrls_0.writeEnergy                      0                       # Energy for write commands per rank (pJ)
system.mem_ctrls_0.refreshEnergy         100800960.000000                       # Energy for refresh commands per rank (pJ)
system.mem_ctrls_0.actBackEnergy            129213300                       # Energy for active background per rank (pJ)
system.mem_ctrls_0.preBackEnergy              5463360                       # Energy for precharge background per rank (pJ)
system.mem_ctrls_0.actPowerDownEnergy       411428280                       # Energy for active power-down per rank (pJ)
system.mem_ctrls_0.prePowerDownEnergy        33748320                       # Energy for precharge power-down per rank (pJ)
system.mem_ctrls_0.selfRefreshEnergy       3872891520                       # Energy for self refresh per rank (pJ)
system.mem_ctrls_0.totalEnergy             4629615570                       # Total energy per rank (pJ)
system.mem_ctrls_0.averagePower            266.148393                       # Core power per rank (mW)
system.mem_ctrls_0.totalIdleTime          17097251480                       # Total Idle time Per DRAM Rank
system.mem_ctrls_0.memoryStateTime::IDLE      5715341                       # Time in different power states
system.mem_ctrls_0.memoryStateTime::REF      42640000                       # Time in different power states
system.mem_ctrls_0.memoryStateTime::SREF  16107134046                       # Time in different power states
system.mem_ctrls_0.memoryStateTime::PRE_PDN     87885531                       # Time in different power states
system.mem_ctrls_0.memoryStateTime::ACT     249208978                       # Time in different power states
system.mem_ctrls_0.memoryStateTime::ACT_PDN    902281857                       # Time in different power states
system.mem_ctrls_1.actEnergy                  5883360                       # Energy for activate commands per rank (pJ)
system.mem_ctrls_1.preEnergy                  3111900                       # Energy for precharge commands per rank (pJ)
system.mem_ctrls_1.readEnergy                69729240                       # Energy for read commands per rank (pJ)
system.mem_ctrls_1.writeEnergy                      0                       # Energy for write commands per rank (pJ)
system.mem_ctrls_1.refreshEnergy         105103440.000000                       # Energy for refresh commands per rank (pJ)
system.mem_ctrls_1.actBackEnergy            134240130                       # Energy for active background per rank (pJ)
system.mem_ctrls_1.preBackEnergy              6122880                       # Energy for precharge background per rank (pJ)
system.mem_ctrls_1.actPowerDownEnergy       439538970                       # Energy for active power-down per rank (pJ)
system.mem_ctrls_1.prePowerDownEnergy        25276800                       # Energy for precharge power-down per rank (pJ)
system.mem_ctrls_1.selfRefreshEnergy       3857572020                       # Energy for self refresh per rank (pJ)
system.mem_ctrls_1.totalEnergy             4646578740                       # Total energy per rank (pJ)
system.mem_ctrls_1.averagePower            267.123576                       # Core power per rank (mW)
system.mem_ctrls_1.totalIdleTime          17084414692                       # Total Idle time Per DRAM Rank
system.mem_ctrls_1.memoryStateTime::IDLE      6941286                       # Time in different power states
system.mem_ctrls_1.memoryStateTime::REF      44460000                       # Time in different power states
system.mem_ctrls_1.memoryStateTime::SREF  16054807361                       # Time in different power states
system.mem_ctrls_1.memoryStateTime::PRE_PDN     65814637                       # Time in different power states
system.mem_ctrls_1.memoryStateTime::ACT     258902439                       # Time in different power states
system.mem_ctrls_1.memoryStateTime::ACT_PDN    963940030                       # Time in different power states
system.pwrStateResidencyTicks::UNDEFINED  17394865753                       # Cumulative time (in ticks) in various power states
system.cpu.branchPred.lookups                 2357315                       # Number of BP lookups
system.cpu.branchPred.condPredicted           2357315                       # Number of conditional branches predicted
system.cpu.branchPred.condIncorrect              8456                       # Number of conditional branches incorrect
system.cpu.branchPred.BTBLookups              2339736                       # Number of BTB lookups
system.cpu.branchPred.BTBHits                       0                       # Number of BTB hits
system.cpu.branchPred.BTBCorrect                    0                       # Number of correct BTB predictions (this stat may not work properly.
system.cpu.branchPred.BTBHitPct              0.000000                       # BTB Hit Percentage
system.cpu.branchPred.usedRAS                    2024                       # Number of times the RAS was used to get a target.
system.cpu.branchPred.RASInCorrect                403                       # Number of incorrect RAS predictions.
system.cpu.branchPred.indirectLookups         2339736                       # Number of indirect predictor lookups.
system.cpu.branchPred.indirectHits            2295075                       # Number of indirect target hits.
system.cpu.branchPred.indirectMisses            44661                       # Number of indirect misses.
system.cpu.branchPredindirectMispredicted         4803                       # Number of mispredicted indirect branches.
system.cpu_voltage_domain.voltage                   1                       # Voltage in Volts
system.cpu_clk_domain.clock                       667                       # Clock period in ticks
system.cpu.dtb.walker.pwrStateResidencyTicks::UNDEFINED  17394865753                       # Cumulative time (in ticks) in various power states
system.cpu.dtb.rdAccesses                      193365                       # TLB accesses on read requests
system.cpu.dtb.wrAccesses                     2212760                       # TLB accesses on write requests
system.cpu.dtb.rdMisses                          2402                       # TLB misses on read requests
system.cpu.dtb.wrMisses                         41096                       # TLB misses on write requests
system.cpu.apic_clk_domain.clock                10672                       # Clock period in ticks
system.cpu.interrupts.pwrStateResidencyTicks::UNDEFINED  17394865753                       # Cumulative time (in ticks) in various power states
system.cpu.itb.walker.pwrStateResidencyTicks::UNDEFINED  17394865753                       # Cumulative time (in ticks) in various power states
system.cpu.itb.rdAccesses                           0                       # TLB accesses on read requests
system.cpu.itb.wrAccesses                      172807                       # TLB accesses on write requests
system.cpu.itb.rdMisses                             0                       # TLB misses on read requests
system.cpu.itb.wrMisses                           157                       # TLB misses on write requests
system.cpu.workload.numSyscalls                    32                       # Number of system calls
system.cpu.pwrStateResidencyTicks::ON     17394865753                       # Cumulative time (in ticks) in various power states
system.cpu.numCycles                         26079260                       # number of cpu cycles simulated
system.cpu.numWorkItemsStarted                      0                       # number of work items this cpu started
system.cpu.numWorkItemsCompleted                    0                       # number of work items this cpu completed
system.cpu.fetch.icacheStallCycles             202598                       # Number of cycles fetch is stalled on an Icache miss
system.cpu.fetch.Insts                       12677775                       # Number of instructions fetch has processed
system.cpu.fetch.Branches                     2357315                       # Number of branches that fetch encountered
system.cpu.fetch.predictedBranches            2297099                       # Number of branches that fetch has predicted taken
system.cpu.fetch.Cycles                      25805578                       # Number of cycles fetch has run and was not squashing or blocked
system.cpu.fetch.SquashCycles                   17060                       # Number of cycles fetch has spent squashing
system.cpu.fetch.TlbCycles                        127                       # Number of cycles fetch has spent waiting for tlb
system.cpu.fetch.MiscStallCycles                   43                       # Number of cycles fetch has spent waiting on interrupts, or bad addresses, or out of MSHRs
system.cpu.fetch.PendingTrapStallCycles           416                       # Number of stall cycles due to pending traps
system.cpu.fetch.PendingQuiesceStallCycles           14                       # Number of stall cycles due to pending quiesce instructions
system.cpu.fetch.IcacheWaitRetryStallCycles           69                       # Number of stall cycles due to full MSHR
system.cpu.fetch.CacheLines                    172745                       # Number of cache lines fetched
system.cpu.fetch.IcacheSquashes                  2448                       # Number of outstanding Icache misses that were squashed
system.cpu.fetch.rateDist::samples           26017375                       # Number of instructions fetched each cycle (Total)
system.cpu.fetch.rateDist::mean              0.803536                       # Number of instructions fetched each cycle (Total)
system.cpu.fetch.rateDist::stdev             2.345194                       # Number of instructions fetched each cycle (Total)
system.cpu.fetch.rateDist::underflows               0      0.00%      0.00% # Number of instructions fetched each cycle (Total)
system.cpu.fetch.rateDist::0                 23164426     89.03%     89.03% # Number of instructions fetched each cycle (Total)
system.cpu.fetch.rateDist::1                     8543      0.03%     89.07% # Number of instructions fetched each cycle (Total)
system.cpu.fetch.rateDist::2                     4193      0.02%     89.08% # Number of instructions fetched each cycle (Total)
system.cpu.fetch.rateDist::3                    70704      0.27%     89.36% # Number of instructions fetched each cycle (Total)
system.cpu.fetch.rateDist::4                   311084      1.20%     90.55% # Number of instructions fetched each cycle (Total)
system.cpu.fetch.rateDist::5                    69394      0.27%     90.82% # Number of instructions fetched each cycle (Total)
system.cpu.fetch.rateDist::6                    10663      0.04%     90.86% # Number of instructions fetched each cycle (Total)
system.cpu.fetch.rateDist::7                     5384      0.02%     90.88% # Number of instructions fetched each cycle (Total)
system.cpu.fetch.rateDist::8                  2372984      9.12%    100.00% # Number of instructions fetched each cycle (Total)
system.cpu.fetch.rateDist::overflows                0      0.00%    100.00% # Number of instructions fetched each cycle (Total)
system.cpu.fetch.rateDist::min_value                0                       # Number of instructions fetched each cycle (Total)
system.cpu.fetch.rateDist::max_value                8                       # Number of instructions fetched each cycle (Total)
system.cpu.fetch.rateDist::total             26017375                       # Number of instructions fetched each cycle (Total)
system.cpu.fetch.branchRate                  0.090390                       # Number of branch fetches per cycle
system.cpu.fetch.rate                        0.486125                       # Number of inst fetches per cycle
system.cpu.decode.IdleCycles                   905213                       # Number of cycles decode is idle
system.cpu.decode.BlockedCycles              22474992                       # Number of cycles decode is blocked
system.cpu.decode.RunCycles                    721522                       # Number of cycles decode is running
system.cpu.decode.UnblockCycles               1907118                       # Number of cycles decode is unblocking
system.cpu.decode.SquashCycles                   8530                       # Number of cycles decode is squashing
system.cpu.decode.DecodedInsts               20815283                       # Number of instructions handled by decode
system.cpu.rename.SquashCycles                   8530                       # Number of cycles rename is squashing
system.cpu.rename.IdleCycles                  1344464                       # Number of cycles rename is idle
system.cpu.rename.BlockCycles                 7122327                       # Number of cycles rename is blocking
system.cpu.rename.serializeStallCycles           2416                       # count of cycles rename stalled for serializing inst
system.cpu.rename.RunCycles                   2171658                       # Number of cycles rename is running
system.cpu.rename.UnblockCycles              15367980                       # Number of cycles rename is unblocking
system.cpu.rename.RenamedInsts               20773553                       # Number of instructions processed by rename
system.cpu.rename.ROBFullEvents                  1887                       # Number of times rename has blocked due to ROB full
system.cpu.rename.IQFullEvents                  57663                       # Number of times rename has blocked due to IQ full
system.cpu.rename.LQFullEvents                    239                       # Number of times rename has blocked due to LQ full
system.cpu.rename.SQFullEvents               14867658                       # Number of times rename has blocked due to SQ full
system.cpu.rename.RenamedOperands            30061904                       # Number of destination operands rename has renamed
system.cpu.rename.RenameLookups              51400615                       # Number of register rename lookups that rename has made
system.cpu.rename.int_rename_lookups         28139799                       # Number of integer rename lookups
system.cpu.rename.fp_rename_lookups           4392323                       # Number of floating rename lookups
system.cpu.rename.CommittedMaps              29547072                       # Number of HB maps that are committed
system.cpu.rename.UndoneMaps                   514832                       # Number of HB maps that are undone due to squashing
system.cpu.rename.serializingInsts                 93                       # count of serializing insts renamed
system.cpu.rename.tempSerializingInsts             65                       # count of temporary serializing insts renamed
system.cpu.rename.skidInsts                   9283686                       # count of insts added to the skid buffer
system.cpu.memDep0.insertedLoads               205346                       # Number of loads inserted to the mem dependence unit.
system.cpu.memDep0.insertedStores             2217707                       # Number of stores inserted to the mem dependence unit.
system.cpu.memDep0.conflictingLoads              1043                       # Number of conflicting loads.
system.cpu.memDep0.conflictingStores              361                       # Number of conflicting stores.
system.cpu.iq.iqInstsAdded                   20702968                       # Number of instructions added to the IQ (excludes non-spec)
system.cpu.iq.iqNonSpecInstsAdded                 134                       # Number of non-speculative instructions added to the IQ
system.cpu.iq.iqInstsIssued                  20598740                       # Number of instructions issued
system.cpu.iq.iqSquashedInstsIssued              2792                       # Number of squashed instructions issued
system.cpu.iq.iqSquashedInstsExamined          338426                       # Number of squashed instructions iterated over during squash; mainly for profiling
system.cpu.iq.iqSquashedOperandsExamined       476380                       # Number of squashed operands that are examined and possibly removed from graph
system.cpu.iq.iqSquashedNonSpecRemoved             90                       # Number of squashed non-spec instructions that were removed
system.cpu.iq.issued_per_cycle::samples      26017375                       # Number of insts issued each cycle
system.cpu.iq.issued_per_cycle::mean         0.791730                       # Number of insts issued each cycle
system.cpu.iq.issued_per_cycle::stdev        1.800367                       # Number of insts issued each cycle
system.cpu.iq.issued_per_cycle::underflows            0      0.00%      0.00% # Number of insts issued each cycle
system.cpu.iq.issued_per_cycle::0            20732764     79.69%     79.69% # Number of insts issued each cycle
system.cpu.iq.issued_per_cycle::1              842573      3.24%     82.93% # Number of insts issued each cycle
system.cpu.iq.issued_per_cycle::2             1043460      4.01%     86.94% # Number of insts issued each cycle
system.cpu.iq.issued_per_cycle::3              207760      0.80%     87.74% # Number of insts issued each cycle
system.cpu.iq.issued_per_cycle::4              657107      2.53%     90.26% # Number of insts issued each cycle
system.cpu.iq.issued_per_cycle::5             1052176      4.04%     94.31% # Number of insts issued each cycle
system.cpu.iq.issued_per_cycle::6             1275493      4.90%     99.21% # Number of insts issued each cycle
system.cpu.iq.issued_per_cycle::7              144635      0.56%     99.76% # Number of insts issued each cycle
system.cpu.iq.issued_per_cycle::8               61407      0.24%    100.00% # Number of insts issued each cycle
system.cpu.iq.issued_per_cycle::overflows            0      0.00%    100.00% # Number of insts issued each cycle
system.cpu.iq.issued_per_cycle::min_value            0                       # Number of insts issued each cycle
system.cpu.iq.issued_per_cycle::max_value            8                       # Number of insts issued each cycle
system.cpu.iq.issued_per_cycle::total        26017375                       # Number of insts issued each cycle
system.cpu.iq.fu_full::No_OpClass                   0      0.00%      0.00% # attempts to use FU when none available
system.cpu.iq.fu_full::IntAlu                   54775     19.91%     19.91% # attempts to use FU when none available
system.cpu.iq.fu_full::IntMult                      0      0.00%     19.91% # attempts to use FU when none available
system.cpu.iq.fu_full::IntDiv                       0      0.00%     19.91% # attempts to use FU when none available
system.cpu.iq.fu_full::FloatAdd                     0      0.00%     19.91% # attempts to use FU when none available
system.cpu.iq.fu_full::FloatCmp                     0      0.00%     19.91% # attempts to use FU when none available
system.cpu.iq.fu_full::FloatCvt                     0      0.00%     19.91% # attempts to use FU when none available
system.cpu.iq.fu_full::FloatMult                    0      0.00%     19.91% # attempts to use FU when none available
system.cpu.iq.fu_full::FloatMultAcc                 0      0.00%     19.91% # attempts to use FU when none available
system.cpu.iq.fu_full::FloatDiv                     0      0.00%     19.91% # attempts to use FU when none available
system.cpu.iq.fu_full::FloatMisc                    0      0.00%     19.91% # attempts to use FU when none available
system.cpu.iq.fu_full::FloatSqrt                    0      0.00%     19.91% # attempts to use FU when none available
system.cpu.iq.fu_full::SimdAdd                      1      0.00%     19.91% # attempts to use FU when none available
system.cpu.iq.fu_full::SimdAddAcc                   0      0.00%     19.91% # attempts to use FU when none available
system.cpu.iq.fu_full::SimdAlu                  78131     28.40%     48.32% # attempts to use FU when none available
system.cpu.iq.fu_full::SimdCmp                      0      0.00%     48.32% # attempts to use FU when none available
system.cpu.iq.fu_full::SimdCvt                  78139     28.41%     76.72% # attempts to use FU when none available
system.cpu.iq.fu_full::SimdMisc                 62500     22.72%     99.44% # attempts to use FU when none available
system.cpu.iq.fu_full::SimdMult                     0      0.00%     99.44% # attempts to use FU when none available
system.cpu.iq.fu_full::SimdMultAcc                  0      0.00%     99.44% # attempts to use FU when none available
system.cpu.iq.fu_full::SimdShift                    0      0.00%     99.44% # attempts to use FU when none available
system.cpu.iq.fu_full::SimdShiftAcc                 0      0.00%     99.44% # attempts to use FU when none available
system.cpu.iq.fu_full::SimdSqrt                     0      0.00%     99.44% # attempts to use FU when none available
system.cpu.iq.fu_full::SimdFloatAdd                 0      0.00%     99.44% # attempts to use FU when none available
system.cpu.iq.fu_full::SimdFloatAlu                 0      0.00%     99.44% # attempts to use FU when none available
system.cpu.iq.fu_full::SimdFloatCmp                 0      0.00%     99.44% # attempts to use FU when none available
system.cpu.iq.fu_full::SimdFloatCvt                 0      0.00%     99.44% # attempts to use FU when none available
system.cpu.iq.fu_full::SimdFloatDiv                 0      0.00%     99.44% # attempts to use FU when none available
system.cpu.iq.fu_full::SimdFloatMisc                0      0.00%     99.44% # attempts to use FU when none available
system.cpu.iq.fu_full::SimdFloatMult                0      0.00%     99.44% # attempts to use FU when none available
system.cpu.iq.fu_full::SimdFloatMultAcc             0      0.00%     99.44% # attempts to use FU when none available
system.cpu.iq.fu_full::SimdFloatSqrt                0      0.00%     99.44% # attempts to use FU when none available
system.cpu.iq.fu_full::SimdAes                      0      0.00%     99.44% # attempts to use FU when none available
system.cpu.iq.fu_full::SimdAesMix                   0      0.00%     99.44% # attempts to use FU when none available
system.cpu.iq.fu_full::SimdSha1Hash                 0      0.00%     99.44% # attempts to use FU when none available
system.cpu.iq.fu_full::SimdSha1Hash2                0      0.00%     99.44% # attempts to use FU when none available
system.cpu.iq.fu_full::SimdSha256Hash               0      0.00%     99.44% # attempts to use FU when none available
system.cpu.iq.fu_full::SimdSha256Hash2              0      0.00%     99.44% # attempts to use FU when none available
system.cpu.iq.fu_full::SimdShaSigma2                0      0.00%     99.44% # attempts to use FU when none available
system.cpu.iq.fu_full::SimdShaSigma3                0      0.00%     99.44% # attempts to use FU when none available
system.cpu.iq.fu_full::MemRead                    972      0.35%     99.80% # attempts to use FU when none available
system.cpu.iq.fu_full::MemWrite                   487      0.18%     99.97% # attempts to use FU when none available
system.cpu.iq.fu_full::FloatMemRead                33      0.01%     99.98% # attempts to use FU when none available
system.cpu.iq.fu_full::FloatMemWrite               42      0.02%    100.00% # attempts to use FU when none available
system.cpu.iq.fu_full::IprAccess                    0      0.00%    100.00% # attempts to use FU when none available
system.cpu.iq.fu_full::InstPrefetch                 0      0.00%    100.00% # attempts to use FU when none available
system.cpu.iq.FU_type_0::No_OpClass              4014      0.02%      0.02% # Type of FU issued
system.cpu.iq.FU_type_0::IntAlu              16676804     80.96%     80.98% # Type of FU issued
system.cpu.iq.FU_type_0::IntMult                 1258      0.01%     80.99% # Type of FU issued
system.cpu.iq.FU_type_0::IntDiv                  1215      0.01%     80.99% # Type of FU issued
system.cpu.iq.FU_type_0::FloatAdd                 334      0.00%     80.99% # Type of FU issued
system.cpu.iq.FU_type_0::FloatCmp                   0      0.00%     80.99% # Type of FU issued
system.cpu.iq.FU_type_0::FloatCvt                   0      0.00%     80.99% # Type of FU issued
system.cpu.iq.FU_type_0::FloatMult                  0      0.00%     80.99% # Type of FU issued
system.cpu.iq.FU_type_0::FloatMultAcc               0      0.00%     80.99% # Type of FU issued
system.cpu.iq.FU_type_0::FloatDiv                   0      0.00%     80.99% # Type of FU issued
system.cpu.iq.FU_type_0::FloatMisc                  0      0.00%     80.99% # Type of FU issued
system.cpu.iq.FU_type_0::FloatSqrt                  0      0.00%     80.99% # Type of FU issued
system.cpu.iq.FU_type_0::SimdAdd               500513      2.43%     83.42% # Type of FU issued
system.cpu.iq.FU_type_0::SimdAddAcc                 0      0.00%     83.42% # Type of FU issued
system.cpu.iq.FU_type_0::SimdAlu               126130      0.61%     84.04% # Type of FU issued
system.cpu.iq.FU_type_0::SimdCmp                    6      0.00%     84.04% # Type of FU issued
system.cpu.iq.FU_type_0::SimdCvt               126285      0.61%     84.65% # Type of FU issued
system.cpu.iq.FU_type_0::SimdMisc              750706      3.64%     88.29% # Type of FU issued
system.cpu.iq.FU_type_0::SimdMult                   0      0.00%     88.29% # Type of FU issued
system.cpu.iq.FU_type_0::SimdMultAcc                0      0.00%     88.29% # Type of FU issued
system.cpu.iq.FU_type_0::SimdShift                395      0.00%     88.30% # Type of FU issued
system.cpu.iq.FU_type_0::SimdShiftAcc               0      0.00%     88.30% # Type of FU issued
system.cpu.iq.FU_type_0::SimdSqrt                   0      0.00%     88.30% # Type of FU issued
system.cpu.iq.FU_type_0::SimdFloatAdd               0      0.00%     88.30% # Type of FU issued
system.cpu.iq.FU_type_0::SimdFloatAlu               0      0.00%     88.30% # Type of FU issued
system.cpu.iq.FU_type_0::SimdFloatCmp               0      0.00%     88.30% # Type of FU issued
system.cpu.iq.FU_type_0::SimdFloatCvt               0      0.00%     88.30% # Type of FU issued
system.cpu.iq.FU_type_0::SimdFloatDiv               0      0.00%     88.30% # Type of FU issued
system.cpu.iq.FU_type_0::SimdFloatMisc              0      0.00%     88.30% # Type of FU issued
system.cpu.iq.FU_type_0::SimdFloatMult              0      0.00%     88.30% # Type of FU issued
system.cpu.iq.FU_type_0::SimdFloatMultAcc            0      0.00%     88.30% # Type of FU issued
system.cpu.iq.FU_type_0::SimdFloatSqrt              0      0.00%     88.30% # Type of FU issued
system.cpu.iq.FU_type_0::SimdAes                    0      0.00%     88.30% # Type of FU issued
system.cpu.iq.FU_type_0::SimdAesMix                 0      0.00%     88.30% # Type of FU issued
system.cpu.iq.FU_type_0::SimdSha1Hash               0      0.00%     88.30% # Type of FU issued
system.cpu.iq.FU_type_0::SimdSha1Hash2              0      0.00%     88.30% # Type of FU issued
system.cpu.iq.FU_type_0::SimdSha256Hash             0      0.00%     88.30% # Type of FU issued
system.cpu.iq.FU_type_0::SimdSha256Hash2            0      0.00%     88.30% # Type of FU issued
system.cpu.iq.FU_type_0::SimdShaSigma2              0      0.00%     88.30% # Type of FU issued
system.cpu.iq.FU_type_0::SimdShaSigma3              0      0.00%     88.30% # Type of FU issued
system.cpu.iq.FU_type_0::MemRead                70275      0.34%     88.64% # Type of FU issued
system.cpu.iq.FU_type_0::MemWrite             2213235     10.74%     99.38% # Type of FU issued
system.cpu.iq.FU_type_0::FloatMemRead          127112      0.62%    100.00% # Type of FU issued
system.cpu.iq.FU_type_0::FloatMemWrite            458      0.00%    100.00% # Type of FU issued
system.cpu.iq.FU_type_0::IprAccess                  0      0.00%    100.00% # Type of FU issued
system.cpu.iq.FU_type_0::InstPrefetch               0      0.00%    100.00% # Type of FU issued
system.cpu.iq.FU_type_0::total               20598740                       # Type of FU issued
system.cpu.iq.rate                           0.789851                       # Inst issue rate
system.cpu.iq.fu_busy_cnt                      275080                       # FU busy when requested
system.cpu.iq.fu_busy_rate                   0.013354                       # FU busy rate (busy events/executed inst)
system.cpu.iq.int_inst_queue_reads           63259701                       # Number of integer instruction queue reads
system.cpu.iq.int_inst_queue_writes          19026215                       # Number of integer instruction queue writes
system.cpu.iq.int_inst_queue_wakeup_accesses     18559579                       # Number of integer instruction queue wakeup accesses
system.cpu.iq.fp_inst_queue_reads             4233026                       # Number of floating instruction queue reads
system.cpu.iq.fp_inst_queue_writes            2015361                       # Number of floating instruction queue writes
system.cpu.iq.fp_inst_queue_wakeup_accesses      2006278                       # Number of floating instruction queue wakeup accesses
system.cpu.iq.vec_inst_queue_reads                  0                       # Number of vector instruction queue reads
system.cpu.iq.vec_inst_queue_writes                 0                       # Number of vector instruction queue writes
system.cpu.iq.vec_inst_queue_wakeup_accesses            0                       # Number of vector instruction queue wakeup accesses
system.cpu.iq.int_alu_accesses               18643916                       # Number of integer alu accesses
system.cpu.iq.fp_alu_accesses                 2225890                       # Number of floating point alu accesses
system.cpu.iq.vec_alu_accesses                      0                       # Number of vector alu accesses
system.cpu.iew.lsq.thread0.forwLoads             2352                       # Number of loads that had data forwarded from stores
system.cpu.iew.lsq.thread0.invAddrLoads             0                       # Number of loads ignored due to an invalid address
system.cpu.iew.lsq.thread0.squashedLoads        43965                       # Number of loads squashed
system.cpu.iew.lsq.thread0.ignoredResponses           18                       # Number of memory responses ignored because the instruction is squashed
system.cpu.iew.lsq.thread0.memOrderViolation           51                       # Number of memory ordering violations
system.cpu.iew.lsq.thread0.squashedStores         9128                       # Number of stores squashed
system.cpu.iew.lsq.thread0.invAddrSwpfs             0                       # Number of software prefetches ignored due to an invalid address
system.cpu.iew.lsq.thread0.blockedLoads             0                       # Number of blocked loads due to partial load-store forwarding
system.cpu.iew.lsq.thread0.rescheduledLoads            4                       # Number of loads that were rescheduled
system.cpu.iew.lsq.thread0.cacheBlocked           236                       # Number of times an access to memory failed due to the cache being blocked
system.cpu.iew.iewIdleCycles                        0                       # Number of cycles IEW is idle
system.cpu.iew.iewSquashCycles                   8530                       # Number of cycles IEW is squashing
system.cpu.iew.iewBlockCycles                  355931                       # Number of cycles IEW is blocking
system.cpu.iew.iewUnblockCycles               6691022                       # Number of cycles IEW is unblocking
system.cpu.iew.iewDispatchedInsts            20703102                       # Number of instructions dispatched to IQ
system.cpu.iew.iewDispSquashedInsts               343                       # Number of squashed instructions skipped by dispatch
system.cpu.iew.iewDispLoadInsts                205346                       # Number of dispatched load instructions
system.cpu.iew.iewDispStoreInsts              2217707                       # Number of dispatched store instructions
system.cpu.iew.iewDispNonSpecInsts                 78                       # Number of dispatched non-speculative instructions
system.cpu.iew.iewIQFullEvents                    987                       # Number of times the IQ has become full, causing a stall
system.cpu.iew.iewLSQFullEvents               6689854                       # Number of times the LSQ has become full, causing a stall
system.cpu.iew.memOrderViolationEvents             51                       # Number of memory order violations
system.cpu.iew.predictedTakenIncorrect           2249                       # Number of branches that were predicted taken incorrectly
system.cpu.iew.predictedNotTakenIncorrect         8698                       # Number of branches that were predicted not taken incorrectly
system.cpu.iew.branchMispredicts                10947                       # Number of branch mispredicts detected at execute
system.cpu.iew.iewExecutedInsts              20579844                       # Number of executed instructions
system.cpu.iew.iewExecLoadInsts                193301                       # Number of load instructions executed
system.cpu.iew.iewExecSquashedInsts             18896                       # Number of squashed instructions skipped in execute
system.cpu.iew.exec_swp                             0                       # number of swp insts executed
system.cpu.iew.exec_nop                             0                       # number of nop insts executed
system.cpu.iew.exec_refs                      2406056                       # number of memory reference insts executed
system.cpu.iew.exec_branches                  2307126                       # Number of branches executed
system.cpu.iew.exec_stores                    2212755                       # Number of stores executed
system.cpu.iew.exec_rate                     0.789127                       # Inst execution rate
system.cpu.iew.wb_sent                       20571660                       # cumulative count of insts sent to commit
system.cpu.iew.wb_count                      20565857                       # cumulative count of insts written-back
system.cpu.iew.wb_producers                  11845684                       # num instructions producing a value
system.cpu.iew.wb_consumers                  18004271                       # num instructions consuming a value
system.cpu.iew.wb_rate                       0.788591                       # insts written-back per cycle
system.cpu.iew.wb_fanout                     0.657937                       # average fanout of values written-back
system.cpu.commit.commitSquashedInsts          339517                       # The number of squashed insts skipped by commit
system.cpu.commit.commitNonSpecStalls              44                       # The number of times commit has been forced to stall to communicate backwards
system.cpu.commit.branchMispredicts              8493                       # The number of times a branch was mispredicted
system.cpu.commit.committed_per_cycle::samples     25966781                       # Number of insts commited each cycle
system.cpu.commit.committed_per_cycle::mean     0.784259                       # Number of insts commited each cycle
system.cpu.commit.committed_per_cycle::stdev     1.859302                       # Number of insts commited each cycle
system.cpu.commit.committed_per_cycle::underflows            0      0.00%      0.00% # Number of insts commited each cycle
system.cpu.commit.committed_per_cycle::0     20720124     79.79%     79.79% # Number of insts commited each cycle
system.cpu.commit.committed_per_cycle::1       783959      3.02%     82.81% # Number of insts commited each cycle
system.cpu.commit.committed_per_cycle::2      1004340      3.87%     86.68% # Number of insts commited each cycle
system.cpu.commit.committed_per_cycle::3      1072267      4.13%     90.81% # Number of insts commited each cycle
system.cpu.commit.committed_per_cycle::4        37960      0.15%     90.96% # Number of insts commited each cycle
system.cpu.commit.committed_per_cycle::5      1514451      5.83%     96.79% # Number of insts commited each cycle
system.cpu.commit.committed_per_cycle::6        18515      0.07%     96.86% # Number of insts commited each cycle
system.cpu.commit.committed_per_cycle::7         1270      0.00%     96.87% # Number of insts commited each cycle
system.cpu.commit.committed_per_cycle::8       813895      3.13%    100.00% # Number of insts commited each cycle
system.cpu.commit.committed_per_cycle::overflows            0      0.00%    100.00% # Number of insts commited each cycle
system.cpu.commit.committed_per_cycle::min_value            0                       # Number of insts commited each cycle
system.cpu.commit.committed_per_cycle::max_value            8                       # Number of insts commited each cycle
system.cpu.commit.committed_per_cycle::total     25966781                       # Number of insts commited each cycle
system.cpu.commit.committedInsts             12389443                       # Number of instructions committed
system.cpu.commit.committedOps               20364675                       # Number of ops (including micro ops) committed
system.cpu.commit.swp_count                         0                       # Number of s/w prefetches committed
system.cpu.commit.refs                        2369960                       # Number of memory references committed
system.cpu.commit.loads                        161381                       # Number of loads committed
system.cpu.commit.membars                           8                       # Number of memory barriers committed
system.cpu.commit.branches                    2292533                       # Number of branches committed
system.cpu.commit.vec_insts                         0                       # Number of committed Vector instructions.
system.cpu.commit.fp_insts                    2003575                       # Number of committed floating point instructions.
system.cpu.commit.int_insts                  18486083                       # Number of committed integer instructions.
system.cpu.commit.function_calls                  665                       # Number of function calls committed.
system.cpu.commit.op_class_0::No_OpClass         1498      0.01%      0.01% # Class of committed instruction
system.cpu.commit.op_class_0::IntAlu         16488742     80.97%     80.97% # Class of committed instruction
system.cpu.commit.op_class_0::IntMult            1015      0.00%     80.98% # Class of committed instruction
system.cpu.commit.op_class_0::IntDiv             1142      0.01%     80.99% # Class of committed instruction
system.cpu.commit.op_class_0::FloatAdd             29      0.00%     80.99% # Class of committed instruction
system.cpu.commit.op_class_0::FloatCmp              0      0.00%     80.99% # Class of committed instruction
system.cpu.commit.op_class_0::FloatCvt              0      0.00%     80.99% # Class of committed instruction
system.cpu.commit.op_class_0::FloatMult             0      0.00%     80.99% # Class of committed instruction
system.cpu.commit.op_class_0::FloatMultAcc            0      0.00%     80.99% # Class of committed instruction
system.cpu.commit.op_class_0::FloatDiv              0      0.00%     80.99% # Class of committed instruction
system.cpu.commit.op_class_0::FloatMisc             0      0.00%     80.99% # Class of committed instruction
system.cpu.commit.op_class_0::FloatSqrt             0      0.00%     80.99% # Class of committed instruction
system.cpu.commit.op_class_0::SimdAdd          500322      2.46%     83.44% # Class of committed instruction
system.cpu.commit.op_class_0::SimdAddAcc            0      0.00%     83.44% # Class of committed instruction
system.cpu.commit.op_class_0::SimdAlu          125493      0.62%     84.06% # Class of committed instruction
system.cpu.commit.op_class_0::SimdCmp               6      0.00%     84.06% # Class of committed instruction
system.cpu.commit.op_class_0::SimdCvt          125754      0.62%     84.68% # Class of committed instruction
system.cpu.commit.op_class_0::SimdMisc         750531      3.69%     88.36% # Class of committed instruction
system.cpu.commit.op_class_0::SimdMult              0      0.00%     88.36% # Class of committed instruction
system.cpu.commit.op_class_0::SimdMultAcc            0      0.00%     88.36% # Class of committed instruction
system.cpu.commit.op_class_0::SimdShift           183      0.00%     88.36% # Class of committed instruction
system.cpu.commit.op_class_0::SimdShiftAcc            0      0.00%     88.36% # Class of committed instruction
system.cpu.commit.op_class_0::SimdSqrt              0      0.00%     88.36% # Class of committed instruction
system.cpu.commit.op_class_0::SimdFloatAdd            0      0.00%     88.36% # Class of committed instruction
system.cpu.commit.op_class_0::SimdFloatAlu            0      0.00%     88.36% # Class of committed instruction
system.cpu.commit.op_class_0::SimdFloatCmp            0      0.00%     88.36% # Class of committed instruction
system.cpu.commit.op_class_0::SimdFloatCvt            0      0.00%     88.36% # Class of committed instruction
system.cpu.commit.op_class_0::SimdFloatDiv            0      0.00%     88.36% # Class of committed instruction
system.cpu.commit.op_class_0::SimdFloatMisc            0      0.00%     88.36% # Class of committed instruction
system.cpu.commit.op_class_0::SimdFloatMult            0      0.00%     88.36% # Class of committed instruction
system.cpu.commit.op_class_0::SimdFloatMultAcc            0      0.00%     88.36% # Class of committed instruction
system.cpu.commit.op_class_0::SimdFloatSqrt            0      0.00%     88.36% # Class of committed instruction
system.cpu.commit.op_class_0::SimdAes               0      0.00%     88.36% # Class of committed instruction
system.cpu.commit.op_class_0::SimdAesMix            0      0.00%     88.36% # Class of committed instruction
system.cpu.commit.op_class_0::SimdSha1Hash            0      0.00%     88.36% # Class of committed instruction
system.cpu.commit.op_class_0::SimdSha1Hash2            0      0.00%     88.36% # Class of committed instruction
system.cpu.commit.op_class_0::SimdSha256Hash            0      0.00%     88.36% # Class of committed instruction
system.cpu.commit.op_class_0::SimdSha256Hash2            0      0.00%     88.36% # Class of committed instruction
system.cpu.commit.op_class_0::SimdShaSigma2            0      0.00%     88.36% # Class of committed instruction
system.cpu.commit.op_class_0::SimdShaSigma3            0      0.00%     88.36% # Class of committed instruction
system.cpu.commit.op_class_0::MemRead           35571      0.17%     88.54% # Class of committed instruction
system.cpu.commit.op_class_0::MemWrite        2208195     10.84%     99.38% # Class of committed instruction
system.cpu.commit.op_class_0::FloatMemRead       125810      0.62%    100.00% # Class of committed instruction
system.cpu.commit.op_class_0::FloatMemWrite          384      0.00%    100.00% # Class of committed instruction
system.cpu.commit.op_class_0::IprAccess             0      0.00%    100.00% # Class of committed instruction
system.cpu.commit.op_class_0::InstPrefetch            0      0.00%    100.00% # Class of committed instruction
system.cpu.commit.op_class_0::total          20364675                       # Class of committed instruction
system.cpu.commit.bw_lim_events                813895                       # number cycles where commit BW limit reached
system.cpu.rob.rob_reads                     45857078                       # The number of ROB reads
system.cpu.rob.rob_writes                    41459548                       # The number of ROB writes
system.cpu.timesIdled                             658                       # Number of times that the entire CPU went into an idle state and unscheduled itself
system.cpu.idleCycles                           61885                       # Total number of cycles that the CPU has spent unscheduled due to idling
system.cpu.committedInsts                    12389443                       # Number of Instructions Simulated
system.cpu.committedOps                      20364675                       # Number of Ops (including micro ops) Simulated
system.cpu.cpi                               2.104958                       # CPI: Cycles Per Instruction
system.cpu.cpi_total                         2.104958                       # CPI: Total CPI of All Threads
system.cpu.ipc                               0.475069                       # IPC: Instructions Per Cycle
system.cpu.ipc_total                         0.475069                       # IPC: Total IPC of All Threads
system.cpu.int_regfile_reads                 27794470                       # number of integer regfile reads
system.cpu.int_regfile_writes                14044207                       # number of integer regfile writes
system.cpu.fp_regfile_reads                   4384760                       # number of floating regfile reads
system.cpu.fp_regfile_writes                  2005409                       # number of floating regfile writes
system.cpu.cc_regfile_reads                  11555000                       # number of cc regfile reads
system.cpu.cc_regfile_writes                 13743056                       # number of cc regfile writes
system.cpu.misc_regfile_reads                 7042020                       # number of misc regfile reads
system.cpu.dcache.tags.pwrStateResidencyTicks::UNDEFINED  17394865753                       # Cumulative time (in ticks) in various power states
system.cpu.dcache.tags.tagsinuse          1020.643981                       # Cycle average of tags in use
system.cpu.dcache.tags.total_refs             2338194                       # Total number of references to valid blocks.
system.cpu.dcache.tags.sampled_refs            783337                       # Sample count of references to valid blocks.
system.cpu.dcache.tags.avg_refs              2.984915                       # Average number of references to valid blocks.
system.cpu.dcache.tags.warmup_cycle            191429                       # Cycle when the warmup percentage was hit.
system.cpu.dcache.tags.occ_blocks::.cpu.data  1020.643981                       # Average occupied blocks per requestor
system.cpu.dcache.tags.occ_percent::.cpu.data     0.996723                       # Average percentage of cache occupancy
system.cpu.dcache.tags.occ_percent::total     0.996723                       # Average percentage of cache occupancy
system.cpu.dcache.tags.occ_task_id_blocks::1024         1024                       # Occupied blocks per task id
system.cpu.dcache.tags.age_task_id_blocks_1024::0           36                       # Occupied blocks per task id
system.cpu.dcache.tags.age_task_id_blocks_1024::1          476                       # Occupied blocks per task id
system.cpu.dcache.tags.age_task_id_blocks_1024::4          512                       # Occupied blocks per task id
system.cpu.dcache.tags.occ_task_id_percent::1024            1                       # Percentage of cache occupancy per task id
system.cpu.dcache.tags.tag_accesses           5578253                       # Number of tag accesses
system.cpu.dcache.tags.data_accesses          5578253                       # Number of data accesses
system.cpu.dcache.pwrStateResidencyTicks::UNDEFINED  17394865753                       # Cumulative time (in ticks) in various power states
system.cpu.dcache.ReadReq_hits::.cpu.data       111506                       # number of ReadReq hits
system.cpu.dcache.ReadReq_hits::total          111506                       # number of ReadReq hits
system.cpu.dcache.WriteReq_hits::.cpu.data      1443351                       # number of WriteReq hits
system.cpu.dcache.WriteReq_hits::total        1443351                       # number of WriteReq hits
system.cpu.dcache.demand_hits::.cpu.data      1554857                       # number of demand (read+write) hits
system.cpu.dcache.demand_hits::total          1554857                       # number of demand (read+write) hits
system.cpu.dcache.overall_hits::.cpu.data      1554857                       # number of overall hits
system.cpu.dcache.overall_hits::total         1554857                       # number of overall hits
system.cpu.dcache.ReadReq_misses::.cpu.data        77373                       # number of ReadReq misses
system.cpu.dcache.ReadReq_misses::total         77373                       # number of ReadReq misses
system.cpu.dcache.WriteReq_misses::.cpu.data       765228                       # number of WriteReq misses
system.cpu.dcache.WriteReq_misses::total       765228                       # number of WriteReq misses
system.cpu.dcache.demand_misses::.cpu.data       842601                       # number of demand (read+write) misses
system.cpu.dcache.demand_misses::total         842601                       # number of demand (read+write) misses
system.cpu.dcache.overall_misses::.cpu.data       842601                       # number of overall misses
system.cpu.dcache.overall_misses::total        842601                       # number of overall misses
system.cpu.dcache.ReadReq_miss_latency::.cpu.data   1941136750                       # number of ReadReq miss cycles
system.cpu.dcache.ReadReq_miss_latency::total   1941136750                       # number of ReadReq miss cycles
system.cpu.dcache.WriteReq_miss_latency::.cpu.data  14754612953                       # number of WriteReq miss cycles
system.cpu.dcache.WriteReq_miss_latency::total  14754612953                       # number of WriteReq miss cycles
system.cpu.dcache.demand_miss_latency::.cpu.data  16695749703                       # number of demand (read+write) miss cycles
system.cpu.dcache.demand_miss_latency::total  16695749703                       # number of demand (read+write) miss cycles
system.cpu.dcache.overall_miss_latency::.cpu.data  16695749703                       # number of overall miss cycles
system.cpu.dcache.overall_miss_latency::total  16695749703                       # number of overall miss cycles
system.cpu.dcache.ReadReq_accesses::.cpu.data       188879                       # number of ReadReq accesses(hits+misses)
system.cpu.dcache.ReadReq_accesses::total       188879                       # number of ReadReq accesses(hits+misses)
system.cpu.dcache.WriteReq_accesses::.cpu.data      2208579                       # number of WriteReq accesses(hits+misses)
[...]
system.l2.ReadSharedReq_accesses::total         18115                       # number of ReadSharedReq accesses(hits+misses)
system.l2.demand_accesses::.cpu.inst             1095                       # number of demand (read+write) accesses
system.l2.demand_accesses::.cpu.data           783337                       # number of demand (read+write) accesses
system.l2.demand_accesses::total               784432                       # number of demand (read+write) accesses
system.l2.overall_accesses::.cpu.inst            1095                       # number of overall (read+write) accesses
system.l2.overall_accesses::.cpu.data          783337                       # number of overall (read+write) accesses
system.l2.overall_accesses::total              784432                       # number of overall (read+write) accesses
system.l2.ReadExReq_miss_rate::.cpu.data     0.021002                       # miss rate for ReadExReq accesses
system.l2.ReadExReq_miss_rate::total         0.021002                       # miss rate for ReadExReq accesses
system.l2.ReadCleanReq_miss_rate::.cpu.inst     0.988128                       # miss rate for ReadCleanReq accesses
system.l2.ReadCleanReq_miss_rate::total      0.988128                       # miss rate for ReadCleanReq accesses
system.l2.ReadSharedReq_miss_rate::.cpu.data     0.107425                       # miss rate for ReadSharedReq accesses
system.l2.ReadSharedReq_miss_rate::total     0.107425                       # miss rate for ReadSharedReq accesses
system.l2.demand_miss_rate::.cpu.inst        0.988128                       # miss rate for demand accesses
system.l2.demand_miss_rate::.cpu.data        0.023000                       # miss rate for demand accesses
system.l2.demand_miss_rate::total            0.024348                       # miss rate for demand accesses
system.l2.overall_miss_rate::.cpu.inst       0.988128                       # miss rate for overall accesses
system.l2.overall_miss_rate::.cpu.data       0.023000                       # miss rate for overall accesses
system.l2.overall_miss_rate::total           0.024348                       # miss rate for overall accesses
system.l2.ReadExReq_avg_miss_latency::.cpu.data 83354.497355                       # average ReadExReq miss latency
system.l2.ReadExReq_avg_miss_latency::total 83354.497355                       # average ReadExReq miss latency
system.l2.ReadCleanReq_avg_miss_latency::.cpu.inst 88379.349353                       # average ReadCleanReq miss latency
system.l2.ReadCleanReq_avg_miss_latency::total 88379.349353                       # average ReadCleanReq miss latency
system.l2.ReadSharedReq_avg_miss_latency::.cpu.data 88206.122816                       # average ReadSharedReq miss latency
system.l2.ReadSharedReq_avg_miss_latency::total 88206.122816                       # average ReadSharedReq miss latency
system.l2.demand_avg_miss_latency::.cpu.inst 88379.349353                       # average overall miss latency
system.l2.demand_avg_miss_latency::.cpu.data 83878.517067                       # average overall miss latency
system.l2.demand_avg_miss_latency::total 84133.499031                       # average overall miss latency
system.l2.overall_avg_miss_latency::.cpu.inst 88379.349353                       # average overall miss latency
system.l2.overall_avg_miss_latency::.cpu.data 83878.517067                       # average overall miss latency
system.l2.overall_avg_miss_latency::total 84133.499031                       # average overall miss latency
system.l2.blocked_cycles::no_mshrs                  0                       # number of cycles access was blocked
system.l2.blocked_cycles::no_targets                0                       # number of cycles access was blocked
system.l2.blocked::no_mshrs                         0                       # number of cycles access was blocked
system.l2.blocked::no_targets                       0                       # number of cycles access was blocked
system.l2.avg_blocked_cycles::no_mshrs            nan                       # average number of cycles each access was blocked
system.l2.avg_blocked_cycles::no_targets          nan                       # average number of cycles each access was blocked
system.l2.ReadCleanReq_mshr_hits::.cpu.inst            1                       # number of ReadCleanReq MSHR hits
system.l2.ReadCleanReq_mshr_hits::total             1                       # number of ReadCleanReq MSHR hits
system.l2.demand_mshr_hits::.cpu.inst               1                       # number of demand (read+write) MSHR hits
system.l2.demand_mshr_hits::total                   1                       # number of demand (read+write) MSHR hits
system.l2.overall_mshr_hits::.cpu.inst              1                       # number of overall MSHR hits
system.l2.overall_mshr_hits::total                  1                       # number of overall MSHR hits
system.l2.ReadExReq_mshr_misses::.cpu.data        16071                       # number of ReadExReq MSHR misses
system.l2.ReadExReq_mshr_misses::total          16071                       # number of ReadExReq MSHR misses
system.l2.ReadCleanReq_mshr_misses::.cpu.inst         1081                       # number of ReadCleanReq MSHR misses
system.l2.ReadCleanReq_mshr_misses::total         1081                       # number of ReadCleanReq MSHR misses
system.l2.ReadSharedReq_mshr_misses::.cpu.data         1946                       # number of ReadSharedReq MSHR misses
system.l2.ReadSharedReq_mshr_misses::total         1946                       # number of ReadSharedReq MSHR misses
system.l2.demand_mshr_misses::.cpu.inst          1081                       # number of demand (read+write) MSHR misses
system.l2.demand_mshr_misses::.cpu.data         18017                       # number of demand (read+write) MSHR misses
system.l2.demand_mshr_misses::total             19098                       # number of demand (read+write) MSHR misses
system.l2.overall_mshr_misses::.cpu.inst         1081                       # number of overall MSHR misses
system.l2.overall_mshr_misses::.cpu.data        18017                       # number of overall MSHR misses
system.l2.overall_mshr_misses::total            19098                       # number of overall MSHR misses
system.l2.ReadExReq_mshr_miss_latency::.cpu.data   1125202987                       # number of ReadExReq MSHR miss cycles
system.l2.ReadExReq_mshr_miss_latency::total   1125202987                       # number of ReadExReq MSHR miss cycles
system.l2.ReadCleanReq_mshr_miss_latency::.cpu.inst     81129211                       # number of ReadCleanReq MSHR miss cycles
system.l2.ReadCleanReq_mshr_miss_latency::total     81129211                       # number of ReadCleanReq MSHR miss cycles
system.l2.ReadSharedReq_mshr_miss_latency::.cpu.data    145689475                       # number of ReadSharedReq MSHR miss cycles
system.l2.ReadSharedReq_mshr_miss_latency::total    145689475                       # number of ReadSharedReq MSHR miss cycles
system.l2.demand_mshr_miss_latency::.cpu.inst     81129211                       # number of demand (read+write) MSHR miss cycles
system.l2.demand_mshr_miss_latency::.cpu.data   1270892462                       # number of demand (read+write) MSHR miss cycles
system.l2.demand_mshr_miss_latency::total   1352021673                       # number of demand (read+write) MSHR miss cycles
system.l2.overall_mshr_miss_latency::.cpu.inst     81129211                       # number of overall MSHR miss cycles
system.l2.overall_mshr_miss_latency::.cpu.data   1270892462                       # number of overall MSHR miss cycles
system.l2.overall_mshr_miss_latency::total   1352021673                       # number of overall MSHR miss cycles
system.l2.ReadExReq_mshr_miss_rate::.cpu.data     0.021002                       # mshr miss rate for ReadExReq accesses
system.l2.ReadExReq_mshr_miss_rate::total     0.021002                       # mshr miss rate for ReadExReq accesses
system.l2.ReadCleanReq_mshr_miss_rate::.cpu.inst     0.987215                       # mshr miss rate for ReadCleanReq accesses
system.l2.ReadCleanReq_mshr_miss_rate::total     0.987215                       # mshr miss rate for ReadCleanReq accesses
system.l2.ReadSharedReq_mshr_miss_rate::.cpu.data     0.107425                       # mshr miss rate for ReadSharedReq accesses
system.l2.ReadSharedReq_mshr_miss_rate::total     0.107425                       # mshr miss rate for ReadSharedReq accesses
system.l2.demand_mshr_miss_rate::.cpu.inst     0.987215                       # mshr miss rate for demand accesses
system.l2.demand_mshr_miss_rate::.cpu.data     0.023000                       # mshr miss rate for demand accesses
system.l2.demand_mshr_miss_rate::total       0.024346                       # mshr miss rate for demand accesses
system.l2.overall_mshr_miss_rate::.cpu.inst     0.987215                       # mshr miss rate for overall accesses
system.l2.overall_mshr_miss_rate::.cpu.data     0.023000                       # mshr miss rate for overall accesses
system.l2.overall_mshr_miss_rate::total      0.024346                       # mshr miss rate for overall accesses
system.l2.ReadExReq_avg_mshr_miss_latency::.cpu.data 70014.497355                       # average ReadExReq mshr miss latency
system.l2.ReadExReq_avg_mshr_miss_latency::total 70014.497355                       # average ReadExReq mshr miss latency
system.l2.ReadCleanReq_avg_mshr_miss_latency::.cpu.inst 75050.148936                       # average ReadCleanReq mshr miss latency
system.l2.ReadCleanReq_avg_mshr_miss_latency::total 75050.148936                       # average ReadCleanReq mshr miss latency
system.l2.ReadSharedReq_avg_mshr_miss_latency::.cpu.data 74866.122816                       # average ReadSharedReq mshr miss latency
system.l2.ReadSharedReq_avg_mshr_miss_latency::total 74866.122816                       # average ReadSharedReq mshr miss latency
system.l2.demand_avg_mshr_miss_latency::.cpu.inst 75050.148936                       # average overall mshr miss latency
system.l2.demand_avg_mshr_miss_latency::.cpu.data 70538.517067                       # average overall mshr miss latency
system.l2.demand_avg_mshr_miss_latency::total 70793.887999                       # average overall mshr miss latency
system.l2.overall_avg_mshr_miss_latency::.cpu.inst 75050.148936                       # average overall mshr miss latency
system.l2.overall_avg_mshr_miss_latency::.cpu.data 70538.517067                       # average overall mshr miss latency
system.l2.overall_avg_mshr_miss_latency::total 70793.887999                       # average overall mshr miss latency
system.l2.replacements                              0                       # number of replacements
system.membus.snoop_filter.tot_requests         19098                       # Total number of requests made to the snoop filter.
system.membus.snoop_filter.hit_single_requests            0                       # Number of requests hitting in the snoop filter with a single holder of the requested data.
system.membus.snoop_filter.hit_multi_requests            0                       # Number of requests hitting in the snoop filter with multiple (>1) holders of the requested data.
system.membus.snoop_filter.tot_snoops               0                       # Total number of snoops made to the snoop filter.
system.membus.snoop_filter.hit_single_snoops            0                       # Number of snoops hitting in the snoop filter with a single holder of the requested data.
system.membus.snoop_filter.hit_multi_snoops            0                       # Number of snoops hitting in the snoop filter with multiple (>1) holders of the requested data.
system.membus.pwrStateResidencyTicks::UNDEFINED  17394865753                       # Cumulative time (in ticks) in various power states
system.membus.trans_dist::ReadResp               3027                       # Transaction distribution
system.membus.trans_dist::ReadExReq             16071                       # Transaction distribution
system.membus.trans_dist::ReadExResp            16071                       # Transaction distribution
system.membus.trans_dist::ReadSharedReq          3027                       # Transaction distribution
system.membus.pkt_count_system.l2.mem_side::system.mem_ctrls.port        38196                       # Packet count per connected master and slave (bytes)
system.membus.pkt_count_system.l2.mem_side::total        38196                       # Packet count per connected master and slave (bytes)
system.membus.pkt_count::total                  38196                       # Packet count per connected master and slave (bytes)
system.membus.pkt_size_system.l2.mem_side::system.mem_ctrls.port      1222272                       # Cumulative packet size per connected master and slave (bytes)
system.membus.pkt_size_system.l2.mem_side::total      1222272                       # Cumulative packet size per connected master and slave (bytes)
system.membus.pkt_size::total                 1222272                       # Cumulative packet size per connected master and slave (bytes)
system.membus.snoops                                0                       # Total snoops (count)
system.membus.snoopTraffic                          0                       # Total snoop traffic (bytes)
system.membus.snoop_fanout::samples             19098                       # Request fanout histogram
system.membus.snoop_fanout::mean                    0                       # Request fanout histogram
system.membus.snoop_fanout::stdev                   0                       # Request fanout histogram
system.membus.snoop_fanout::underflows              0      0.00%      0.00% # Request fanout histogram
system.membus.snoop_fanout::0                   19098    100.00%    100.00% # Request fanout histogram
system.membus.snoop_fanout::1                       0      0.00%    100.00% # Request fanout histogram
system.membus.snoop_fanout::overflows               0      0.00%    100.00% # Request fanout histogram
system.membus.snoop_fanout::min_value               0                       # Request fanout histogram
system.membus.snoop_fanout::max_value               0                       # Request fanout histogram
system.membus.snoop_fanout::total               19098                       # Request fanout histogram
system.membus.reqLayer2.occupancy            12738366                       # Layer occupancy (ticks)
system.membus.reqLayer2.utilization               0.1                       # Layer utilization (%)
system.membus.respLayer1.occupancy           74497007                       # Layer occupancy (ticks)
system.membus.respLayer1.utilization              0.4                       # Layer utilization (%)
system.tol2bus.snoop_filter.tot_requests      1566993                       # Total number of requests made to the snoop filter.
system.tol2bus.snoop_filter.hit_single_requests       782564                       # Number of requests hitting in the snoop filter with a single holder of the requested data.
system.tol2bus.snoop_filter.hit_multi_requests            4                       # Number of requests hitting in the snoop filter with multiple (>1) holders of the requested data.
system.tol2bus.snoop_filter.tot_snoops              0                       # Total number of snoops made to the snoop filter.
system.tol2bus.snoop_filter.hit_single_snoops            0                       # Number of snoops hitting in the snoop filter with a single holder of the requested data.
system.tol2bus.snoop_filter.hit_multi_snoops            0                       # Number of snoops hitting in the snoop filter with multiple (>1) holders of the requested data.
system.tol2bus.pwrStateResidencyTicks::UNDEFINED  17394865753                       # Cumulative time (in ticks) in various power states
system.tol2bus.trans_dist::ReadResp             19210                       # Transaction distribution
system.tol2bus.trans_dist::WritebackDirty       780516                       # Transaction distribution
system.tol2bus.trans_dist::WritebackClean          248                       # Transaction distribution
system.tol2bus.trans_dist::CleanEvict            1797                       # Transaction distribution
system.tol2bus.trans_dist::ReadExReq           765222                       # Transaction distribution
system.tol2bus.trans_dist::ReadExResp          765222                       # Transaction distribution
system.tol2bus.trans_dist::ReadCleanReq          1095                       # Transaction distribution
system.tol2bus.trans_dist::ReadSharedReq        18115                       # Transaction distribution
system.tol2bus.pkt_count_system.cpu.icache.mem_side::system.l2.cpu_side         2438                       # Packet count per connected master and slave (bytes)
system.tol2bus.pkt_count_system.cpu.dcache.mem_side::system.l2.cpu_side      2348987                       # Packet count per connected master and slave (bytes)
system.tol2bus.pkt_count::total               2351425                       # Packet count per connected master and slave (bytes)
system.tol2bus.pkt_size_system.cpu.icache.mem_side::system.l2.cpu_side        85952                       # Cumulative packet size per connected master and slave (bytes)
system.tol2bus.pkt_size_system.cpu.dcache.mem_side::system.l2.cpu_side    100086592                       # Cumulative packet size per connected master and slave (bytes)
system.tol2bus.pkt_size::total              100172544                       # Cumulative packet size per connected master and slave (bytes)
system.tol2bus.snoops                               0                       # Total snoops (count)
system.tol2bus.snoopTraffic                         0                       # Total snoop traffic (bytes)
system.tol2bus.snoop_fanout::samples           784432                       # Request fanout histogram
system.tol2bus.snoop_fanout::mean            0.000009                       # Request fanout histogram
system.tol2bus.snoop_fanout::stdev           0.002987                       # Request fanout histogram
system.tol2bus.snoop_fanout::underflows             0      0.00%      0.00% # Request fanout histogram
system.tol2bus.snoop_fanout::0                 784425    100.00%    100.00% # Request fanout histogram
system.tol2bus.snoop_fanout::1                      7      0.00%    100.00% # Request fanout histogram
system.tol2bus.snoop_fanout::2                      0      0.00%    100.00% # Request fanout histogram
system.tol2bus.snoop_fanout::3                      0      0.00%    100.00% # Request fanout histogram
system.tol2bus.snoop_fanout::4                      0      0.00%    100.00% # Request fanout histogram
system.tol2bus.snoop_fanout::overflows              0      0.00%    100.00% # Request fanout histogram
system.tol2bus.snoop_fanout::min_value              0                       # Request fanout histogram
system.tol2bus.snoop_fanout::max_value              1                       # Request fanout histogram
system.tol2bus.snoop_fanout::total             784432                       # Request fanout histogram
system.tol2bus.reqLayer0.occupancy         2086723507                       # Layer occupancy (ticks)
system.tol2bus.reqLayer0.utilization             12.0                       # Layer utilization (%)
system.tol2bus.respLayer0.occupancy           2192427                       # Layer occupancy (ticks)
system.tol2bus.respLayer0.utilization             0.0                       # Layer utilization (%)
system.tol2bus.respLayer1.occupancy        1567457337                       # Layer occupancy (ticks)
system.tol2bus.respLayer1.utilization             9.0                       # Layer utilization (%)

---------- End Simulation Statistics   ----------
