
---------- Begin Simulation Statistics ----------
sim_seconds                                  0.001402                       # Number of seconds simulated
sim_ticks                                  1402359000                       # Number of ticks simulated
final_tick                                 1402359000                       # Number of ticks from beginning of simulation (restored from checkpoints and never reset)
sim_freq                                 1000000000000                       # Frequency of simulated ticks
host_inst_rate                                  61304                       # Simulator instruction rate (inst/s)
host_op_rate                                    99976                       # Simulator op (including micro ops) rate (op/s)
host_tick_rate                               28724080                       # Simulator tick rate (ticks/s)
host_mem_usage                                 670488                       # Number of bytes of host memory used
host_seconds                                    48.82                       # Real time elapsed on the host
sim_insts                                     2992979                       # Number of instructions simulated
sim_ops                                       4881007                       # Number of ops (including micro ops) simulated
system.voltage_domain.voltage                       1                       # Voltage in Volts
system.clk_domain.clock                           500                       # Clock period in ticks
system.mem_ctrls.pwrStateResidencyTicks::UNDEFINED   1402359000                       # Cumulative time (in ticks) in various power states
system.mem_ctrls.bytes_read::.cpu.inst          53056                       # Number of bytes read from this memory
system.mem_ctrls.bytes_read::.cpu.data         160448                       # Number of bytes read from this memory
system.mem_ctrls.bytes_read::total             213504                       # Number of bytes read from this memory
system.mem_ctrls.bytes_inst_read::.cpu.inst        53056                       # Number of instructions bytes read from this memory
system.mem_ctrls.bytes_inst_read::total         53056                       # Number of instructions bytes read from this memory
system.mem_ctrls.num_reads::.cpu.inst             829                       # Number of read requests responded to by this memory
system.mem_ctrls.num_reads::.cpu.data            2507                       # Number of read requests responded to by this memory
system.mem_ctrls.num_reads::total                3336                       # Number of read requests responded to by this memory
system.mem_ctrls.bw_read::.cpu.inst          37833394                       # Total read bandwidth from this memory (bytes/s)
system.mem_ctrls.bw_read::.cpu.data         114412929                       # Total read bandwidth from this memory (bytes/s)
system.mem_ctrls.bw_read::total             152246322                       # Total read bandwidth from this memory (bytes/s)
system.mem_ctrls.bw_inst_read::.cpu.inst     37833394                       # Instruction read bandwidth from this memory (bytes/s)
system.mem_ctrls.bw_inst_read::total         37833394                       # Instruction read bandwidth from this memory (bytes/s)
system.mem_ctrls.bw_total::.cpu.inst         37833394                       # Total bandwidth to/from this memory (bytes/s)
system.mem_ctrls.bw_total::.cpu.data        114412929                       # Total bandwidth to/from this memory (bytes/s)
system.mem_ctrls.bw_total::total            152246322                       # Total bandwidth to/from this memory (bytes/s)
system.mem_ctrls.avgPriority_.cpu.inst::samples       829.00                       # Average QoS priority value for accepted requests
system.mem_ctrls.avgPriority_.cpu.data::samples      2507.00                       # Average QoS priority value for accepted requests
system.mem_ctrls.priorityMinLatency      0.000000018750                       # per QoS priority minimum request to response latency (s)
system.mem_ctrls.priorityMaxLatency      0.000001099750                       # per QoS priority maximum request to response latency (s)
system.mem_ctrls.numReadWriteTurnArounds            0                       # Number of turnarounds from READ to WRITE
system.mem_ctrls.numWriteReadTurnArounds            0                       # Number of turnarounds from WRITE to READ
system.mem_ctrls.numStayReadState                6849                       # Number of times bus staying in READ state
system.mem_ctrls.numStayWriteState                  0                       # Number of times bus staying in WRITE state
system.mem_ctrls.readReqs                        3336                       # Number of read requests accepted
system.mem_ctrls.writeReqs                          0                       # Number of write requests accepted
system.mem_ctrls.readBursts                      3336                       # Number of DRAM read bursts, including those serviced by the write queue
system.mem_ctrls.writeBursts                        0                       # Number of DRAM write bursts, including those merged in the write queue
system.mem_ctrls.bytesReadDRAM                 213504                       # Total number of bytes read from DRAM
system.mem_ctrls.bytesReadWrQ                       0                       # Total number of bytes read from write queue
system.mem_ctrls.bytesWritten                       0                       # Total number of bytes written to DRAM
system.mem_ctrls.bytesReadSys                  213504                       # Total read bytes from the system interface side
system.mem_ctrls.bytesWrittenSys                    0                       # Total written bytes from the system interface side
system.mem_ctrls.servicedByWrQ                      0                       # Number of DRAM read bursts serviced by the write queue
system.mem_ctrls.mergedWrBursts                     0                       # Number of DRAM write bursts merged with an existing one
system.mem_ctrls.neitherReadNorWriteReqs            0                       # Number of requests that are neither read nor write
system.mem_ctrls.perBankRdBursts::0               190                       # Per bank write bursts
system.mem_ctrls.perBankRdBursts::1               271                       # Per bank write bursts
system.mem_ctrls.perBankRdBursts::2               332                       # Per bank write bursts
system.mem_ctrls.perBankRdBursts::3               322                       # Per bank write bursts
system.mem_ctrls.perBankRdBursts::4               260                       # Per bank write bursts
system.mem_ctrls.perBankRdBursts::5               250                       # Per bank write bursts
system.mem_ctrls.perBankRdBursts::6               245                       # Per bank write bursts
system.mem_ctrls.perBankRdBursts::7               169                       # Per bank write bursts
system.mem_ctrls.perBankRdBursts::8               186                       # Per bank write bursts
system.mem_ctrls.perBankRdBursts::9                87                       # Per bank write bursts
system.mem_ctrls.perBankRdBursts::10              175                       # Per bank write bursts
system.mem_ctrls.perBankRdBursts::11              232                       # Per bank write bursts
system.mem_ctrls.perBankRdBursts::12              125                       # Per bank write bursts
system.mem_ctrls.perBankRdBursts::13              135                       # Per bank write bursts
system.mem_ctrls.perBankRdBursts::14              219                       # Per bank write bursts
system.mem_ctrls.perBankRdBursts::15              138                       # Per bank write bursts
system.mem_ctrls.perBankWrBursts::0                 0                       # Per bank write bursts
system.mem_ctrls.perBankWrBursts::1                 0                       # Per bank write bursts
system.mem_ctrls.perBankWrBursts::2                 0                       # Per bank write bursts
system.mem_ctrls.perBankWrBursts::3                 0                       # Per bank write bursts
system.mem_ctrls.perBankWrBursts::4                 0                       # Per bank write bursts
system.mem_ctrls.perBankWrBursts::5                 0                       # Per bank write bursts
system.mem_ctrls.perBankWrBursts::6                 0                       # Per bank write bursts
system.mem_ctrls.perBankWrBursts::7                 0                       # Per bank write bursts
system.mem_ctrls.perBankWrBursts::8                 0                       # Per bank write bursts
system.mem_ctrls.perBankWrBursts::9                 0                       # Per bank write bursts
system.mem_ctrls.perBankWrBursts::10                0                       # Per bank write bursts
system.mem_ctrls.perBankWrBursts::11                0                       # Per bank write bursts
system.mem_ctrls.perBankWrBursts::12                0                       # Per bank write bursts
system.mem_ctrls.perBankWrBursts::13                0                       # Per bank write bursts
system.mem_ctrls.perBankWrBursts::14                0                       # Per bank write bursts
system.mem_ctrls.perBankWrBursts::15                0                       # Per bank write bursts
system.mem_ctrls.numRdRetry                         0                       # Number of times read queue was full causing retry
system.mem_ctrls.numWrRetry                         0                       # Number of times write queue was full causing retry
system.mem_ctrls.totGap                    1402280500                       # Total gap between requests
system.mem_ctrls.readPktSize::0                     0                       # Read request sizes (log2)
system.mem_ctrls.readPktSize::1                     0                       # Read request sizes (log2)
system.mem_ctrls.readPktSize::2                     0                       # Read request sizes (log2)
system.mem_ctrls.readPktSize::3                     0                       # Read request sizes (log2)
system.mem_ctrls.readPktSize::4                     0                       # Read request sizes (log2)
system.mem_ctrls.readPktSize::5                     0                       # Read request sizes (log2)
system.mem_ctrls.readPktSize::6                  3336                       # Read request sizes (log2)
system.mem_ctrls.writePktSize::0                    0                       # Write request sizes (log2)
system.mem_ctrls.writePktSize::1                    0                       # Write request sizes (log2)
system.mem_ctrls.writePktSize::2                    0                       # Write request sizes (log2)
system.mem_ctrls.writePktSize::3                    0                       # Write request sizes (log2)
system.mem_ctrls.writePktSize::4                    0                       # Write request sizes (log2)
system.mem_ctrls.writePktSize::5                    0                       # Write request sizes (log2)
system.mem_ctrls.writePktSize::6                    0                       # Write request sizes (log2)
system.mem_ctrls.rdQLenPdf::0                    2326                       # What read queue length does an incoming req see
system.mem_ctrls.rdQLenPdf::1                     648                       # What read queue length does an incoming req see
system.mem_ctrls.rdQLenPdf::2                     272                       # What read queue length does an incoming req see
system.mem_ctrls.rdQLenPdf::3                      84                       # What read queue length does an incoming req see
system.mem_ctrls.rdQLenPdf::4                       5                       # What read queue length does an incoming req see
system.mem_ctrls.rdQLenPdf::5                       1                       # What read queue length does an incoming req see
system.mem_ctrls.rdQLenPdf::6                       0                       # What read queue length does an incoming req see
system.mem_ctrls.rdQLenPdf::7                       0                       # What read queue length does an incoming req see
system.mem_ctrls.rdQLenPdf::8                       0                       # What read queue length does an incoming req see
system.mem_ctrls.rdQLenPdf::9                       0                       # What read queue length does an incoming req see
system.mem_ctrls.rdQLenPdf::10                      0                       # What read queue length does an incoming req see
system.mem_ctrls.rdQLenPdf::11                      0                       # What read queue length does an incoming req see
system.mem_ctrls.rdQLenPdf::12                      0                       # What read queue length does an incoming req see
system.mem_ctrls.rdQLenPdf::13                      0                       # What read queue length does an incoming req see
system.mem_ctrls.rdQLenPdf::14                      0                       # What read queue length does an incoming req see
system.mem_ctrls.rdQLenPdf::15                      0                       # What read queue length does an incoming req see
system.mem_ctrls.rdQLenPdf::16                      0                       # What read queue length does an incoming req see
system.mem_ctrls.rdQLenPdf::17                      0                       # What read queue length does an incoming req see
system.mem_ctrls.rdQLenPdf::18                      0                       # What read queue length does an incoming req see
system.mem_ctrls.rdQLenPdf::19                      0                       # What read queue length does an incoming req see
system.mem_ctrls.rdQLenPdf::20                      0                       # What read queue length does an incoming req see
system.mem_ctrls.rdQLenPdf::21                      0                       # What read queue length does an incoming req see
system.mem_ctrls.rdQLenPdf::22                      0                       # What read queue length does an incoming req see
system.mem_ctrls.rdQLenPdf::23                      0                       # What read queue length does an incoming req see
system.mem_ctrls.rdQLenPdf::24                      0                       # What read queue length does an incoming req see
system.mem_ctrls.rdQLenPdf::25                      0                       # What read queue length does an incoming req see
system.mem_ctrls.rdQLenPdf::26                      0                       # What read queue length does an incoming req see
system.mem_ctrls.rdQLenPdf::27                      0                       # What read queue length does an incoming req see
system.mem_ctrls.rdQLenPdf::28                      0                       # What read queue length does an incoming req see
system.mem_ctrls.rdQLenPdf::29                      0                       # What read queue length does an incoming req see
system.mem_ctrls.rdQLenPdf::30                      0                       # What read queue length does an incoming req see
system.mem_ctrls.rdQLenPdf::31                      0                       # What read queue length does an incoming req see
system.mem_ctrls.wrQLenPdf::0                       0                       # What write queue length does an incoming req see
system.mem_ctrls.wrQLenPdf::1                       0                       # What write queue length does an incoming req see
system.mem_ctrls.wrQLenPdf::2                       0                       # What write queue length does an incoming req see
system.mem_ctrls.wrQLenPdf::3                       0                       # What write queue length does an incoming req see
system.mem_ctrls.wrQLenPdf::4                       0                       # What write queue length does an incoming req see
system.mem_ctrls.wrQLenPdf::5                       0                       # What write queue length does an incoming req see
system.mem_ctrls.wrQLenPdf::6                       0                       # What write queue length does an incoming req see
system.mem_ctrls.wrQLenPdf::7                       0                       # What write queue length does an incoming req see
system.mem_ctrls.wrQLenPdf::8                       0                       # What write queue length does an incoming req see
system.mem_ctrls.wrQLenPdf::9                       0                       # What write queue length does an incoming req see
system.mem_ctrls.wrQLenPdf::10                      0                       # What write queue length does an incoming req see
system.mem_ctrls.wrQLenPdf::11                      0                       # What write queue length does an incoming req see
system.mem_ctrls.wrQLenPdf::12                      0                       # What write queue length does an incoming req see
system.mem_ctrls.wrQLenPdf::13                      0                       # What write queue length does an incoming req see
system.mem_ctrls.wrQLenPdf::14                      0                       # What write queue length does an incoming req see
system.mem_ctrls.wrQLenPdf::15                      0                       # What write queue length does an incoming req see
system.mem_ctrls.wrQLenPdf::16                      0                       # What write queue length does an incoming req see
system.mem_ctrls.wrQLenPdf::17                      0                       # What write queue length does an incoming req see
system.mem_ctrls.wrQLenPdf::18                      0                       # What write queue length does an incoming req see
system.mem_ctrls.wrQLenPdf::19                      0                       # What write queue length does an incoming req see
system.mem_ctrls.wrQLenPdf::20                      0                       # What write queue length does an incoming req see
system.mem_ctrls.wrQLenPdf::21                      0                       # What write queue length does an incoming req see
system.mem_ctrls.wrQLenPdf::22                      0                       # What write queue length does an incoming req see
system.mem_ctrls.wrQLenPdf::23                      0                       # What write queue length does an incoming req see
system.mem_ctrls.wrQLenPdf::24                      0                       # What write queue length does an incoming req see
system.mem_ctrls.wrQLenPdf::25                      0                       # What write queue length does an incoming req see
system.mem_ctrls.wrQLenPdf::26                      0                       # What write queue length does an incoming req see
system.mem_ctrls.wrQLenPdf::27                      0                       # What write queue length does an incoming req see
system.mem_ctrls.wrQLenPdf::28                      0                       # What write queue length does an incoming req see
system.mem_ctrls.wrQLenPdf::29                      0                       # What write queue length does an incoming req see
system.mem_ctrls.wrQLenPdf::30                      0                       # What write queue length does an incoming req see
system.mem_ctrls.wrQLenPdf::31                      0                       # What write queue length does an incoming req see
system.mem_ctrls.wrQLenPdf::32                      0                       # What write queue length does an incoming req see
system.mem_ctrls.wrQLenPdf::33                      0                       # What write queue length does an incoming req see
system.mem_ctrls.wrQLenPdf::34                      0                       # What write queue length does an incoming req see
system.mem_ctrls.wrQLenPdf::35                      0                       # What write queue length does an incoming req see
system.mem_ctrls.wrQLenPdf::36                      0                       # What write queue length does an incoming req see
system.mem_ctrls.wrQLenPdf::37                      0                       # What write queue length does an incoming req see
system.mem_ctrls.wrQLenPdf::38                      0                       # What write queue length does an incoming req see
system.mem_ctrls.wrQLenPdf::39                      0                       # What write queue length does an incoming req see
system.mem_ctrls.wrQLenPdf::40                      0                       # What write queue length does an incoming req see
system.mem_ctrls.wrQLenPdf::41                      0                       # What write queue length does an incoming req see
system.mem_ctrls.wrQLenPdf::42                      0                       # What write queue length does an incoming req see
system.mem_ctrls.wrQLenPdf::43                      0                       # What write queue length does an incoming req see
system.mem_ctrls.wrQLenPdf::44                      0                       # What write queue length does an incoming req see
system.mem_ctrls.wrQLenPdf::45                      0                       # What write queue length does an incoming req see
system.mem_ctrls.wrQLenPdf::46                      0                       # What write queue length does an incoming req see
system.mem_ctrls.wrQLenPdf::47                      0                       # What write queue length does an incoming req see
system.mem_ctrls.wrQLenPdf::48                      0                       # What write queue length does an incoming req see
system.mem_ctrls.wrQLenPdf::49                      0                       # What write queue length does an incoming req see
system.mem_ctrls.wrQLenPdf::50                      0                       # What write queue length does an incoming req see
system.mem_ctrls.wrQLenPdf::51                      0                       # What write queue length does an incoming req see
system.mem_ctrls.wrQLenPdf::52                      0                       # What write queue length does an incoming req see
system.mem_ctrls.wrQLenPdf::53                      0                       # What write queue length does an incoming req see
system.mem_ctrls.wrQLenPdf::54                      0                       # What write queue length does an incoming req see
system.mem_ctrls.wrQLenPdf::55                      0                       # What write queue length does an incoming req see
system.mem_ctrls.wrQLenPdf::56                      0                       # What write queue length does an incoming req see
system.mem_ctrls.wrQLenPdf::57                      0                       # What write queue length does an incoming req see
system.mem_ctrls.wrQLenPdf::58                      0                       # What write queue length does an incoming req see
system.mem_ctrls.wrQLenPdf::59                      0                       # What write queue length does an incoming req see
system.mem_ctrls.wrQLenPdf::60                      0                       # What write queue length does an incoming req see
system.mem_ctrls.wrQLenPdf::61                      0                       # What write queue length does an incoming req see
system.mem_ctrls.wrQLenPdf::62                      0                       # What write queue length does an incoming req see
system.mem_ctrls.wrQLenPdf::63                      0                       # What write queue length does an incoming req see
system.mem_ctrls.bytesPerActivate::samples          618                       # Bytes accessed per row activation
system.mem_ctrls.bytesPerActivate::mean    343.300971                       # Bytes accessed per row activation
system.mem_ctrls.bytesPerActivate::gmean   241.720160                       # Bytes accessed per row activation
system.mem_ctrls.bytesPerActivate::stdev   296.437765                       # Bytes accessed per row activation
system.mem_ctrls.bytesPerActivate::0-127          114     18.45%     18.45% # Bytes accessed per row activation
system.mem_ctrls.bytesPerActivate::128-255          131     21.20%     39.64% # Bytes accessed per row activation
system.mem_ctrls.bytesPerActivate::256-383          220     35.60%     75.24% # Bytes accessed per row activation
system.mem_ctrls.bytesPerActivate::384-511           27      4.37%     79.61% # Bytes accessed per row activation
system.mem_ctrls.bytesPerActivate::512-639           20      3.24%     82.85% # Bytes accessed per row activation
system.mem_ctrls.bytesPerActivate::640-767           21      3.40%     86.25% # Bytes accessed per row activation
system.mem_ctrls.bytesPerActivate::768-895            8      1.29%     87.54% # Bytes accessed per row activation
system.mem_ctrls.bytesPerActivate::896-1023            5      0.81%     88.35% # Bytes accessed per row activation
system.mem_ctrls.bytesPerActivate::1024-1151           72     11.65%    100.00% # Bytes accessed per row activation
system.mem_ctrls.bytesPerActivate::total          618                       # Bytes accessed per row activation
system.mem_ctrls.masterReadBytes::.cpu.inst        53056                       # Per-master bytes read from memory
system.mem_ctrls.masterReadBytes::.cpu.data       160448                       # Per-master bytes read from memory
system.mem_ctrls.masterReadRate::.cpu.inst 37833393.588945485651                       # Per-master bytes read from memory rate (Bytes/sec)
system.mem_ctrls.masterReadRate::.cpu.data 114412928.501189783216                       # Per-master bytes read from memory rate (Bytes/sec)
system.mem_ctrls.masterReadAccesses::.cpu.inst          829                       # Per-master read serviced memory accesses
system.mem_ctrls.masterReadAccesses::.cpu.data         2507                       # Per-master read serviced memory accesses
system.mem_ctrls.masterReadTotalLat::.cpu.inst     26441750                       # Per-master read total memory access latency
system.mem_ctrls.masterReadTotalLat::.cpu.data     88552500                       # Per-master read total memory access latency
system.mem_ctrls.masterReadAvgLat::.cpu.inst     31895.96                       # Per-master read average memory access latency
system.mem_ctrls.masterReadAvgLat::.cpu.data     35322.10                       # Per-master read average memory access latency
system.mem_ctrls.totQLat                     52444250                       # Total ticks spent queuing
system.mem_ctrls.totMemAccLat               114994250                       # Total ticks spent from burst creation until serviced by the DRAM
system.mem_ctrls.totBusLat                   16680000                       # Total ticks spent in databus transfers
system.mem_ctrls.avgQLat                     15720.70                       # Average queueing delay per DRAM burst
system.mem_ctrls.avgBusLat                    5000.00                       # Average bus latency per DRAM burst
system.mem_ctrls.avgMemAccLat                34470.70                       # Average memory access latency per DRAM burst
system.mem_ctrls.avgRdBW                       152.25                       # Average DRAM read bandwidth in MiByte/s
system.mem_ctrls.avgWrBW                         0.00                       # Average achieved write bandwidth in MiByte/s
system.mem_ctrls.avgRdBWSys                    152.25                       # Average system read bandwidth in MiByte/s
system.mem_ctrls.avgWrBWSys                      0.00                       # Average system write bandwidth in MiByte/s
system.mem_ctrls.peakBW                      12800.00                       # Theoretical peak bandwidth in MiByte/s
system.mem_ctrls.busUtil                         1.19                       # Data bus utilization in percentage
system.mem_ctrls.busUtilRead                     1.19                       # Data bus utilization in percentage for reads
system.mem_ctrls.busUtilWrite                    0.00                       # Data bus utilization in percentage for writes
system.mem_ctrls.avgRdQLen                       1.05                       # Average read queue length when enqueuing
system.mem_ctrls.avgWrQLen                       0.00                       # Average write queue length when enqueuing
system.mem_ctrls.readRowHits                     2708                       # Number of row buffer hits during reads
system.mem_ctrls.writeRowHits                       0                       # Number of row buffer hits during writes
system.mem_ctrls.readRowHitRate                 81.18                       # Row buffer hit rate for reads
system.mem_ctrls.writeRowHitRate                  nan                       # Row buffer hit rate for writes
system.mem_ctrls.avgGap                     420347.87                       # Average gap between requests
system.mem_ctrls.pageHitRate                    81.18                       # Row buffer hit rate, read and write combined
system.mem_ctrls_0.actEnergy                  2570400                       # Energy for activate commands per rank (pJ)
system.mem_ctrls_0.preEnergy                  1351020                       # Energy for precharge commands per rank (pJ)
system.mem_ctrls_0.readEnergy                14558460                       # Energy for read commands per rank (pJ)
system.mem_ctrls_0.writeEnergy                      0                       # Energy for write commands per rank (pJ)
system.mem_ctrls_0.refreshEnergy         91581360.000000                       # Energy for refresh commands per rank (pJ)
system.mem_ctrls_0.actBackEnergy             39971820                       # Energy for active background per rank (pJ)
system.mem_ctrls_0.preBackEnergy              3808800                       # Energy for precharge background per rank (pJ)
system.mem_ctrls_0.actPowerDownEnergy       423012960                       # Energy for active power-down per rank (pJ)
system.mem_ctrls_0.prePowerDownEnergy        54163200                       # Energy for precharge power-down per rank (pJ)
system.mem_ctrls_0.selfRefreshEnergy         62180100                       # Energy for self refresh per rank (pJ)
system.mem_ctrls_0.totalEnergy              693198120                       # Total energy per rank (pJ)
system.mem_ctrls_0.averagePower            494.308604                       # Core power per rank (mW)
system.mem_ctrls_0.totalIdleTime           1304679750                       # Total Idle time Per DRAM Rank
system.mem_ctrls_0.memoryStateTime::IDLE      5815500                       # Time in different power states
system.mem_ctrls_0.memoryStateTime::REF      38740000                       # Time in different power states
system.mem_ctrls_0.memoryStateTime::SREF    236074750                       # Time in different power states
system.mem_ctrls_0.memoryStateTime::PRE_PDN    141062250                       # Time in different power states
system.mem_ctrls_0.memoryStateTime::ACT      52987750                       # Time in different power states
system.mem_ctrls_0.memoryStateTime::ACT_PDN    927678750                       # Time in different power states
system.mem_ctrls_1.actEnergy                  1913520                       # Energy for activate commands per rank (pJ)
system.mem_ctrls_1.preEnergy                   994290                       # Energy for precharge commands per rank (pJ)
system.mem_ctrls_1.readEnergy                 9260580                       # Energy for read commands per rank (pJ)
system.mem_ctrls_1.writeEnergy                      0                       # Energy for write commands per rank (pJ)
system.mem_ctrls_1.refreshEnergy         43024800.000000                       # Energy for refresh commands per rank (pJ)
system.mem_ctrls_1.actBackEnergy             22911720                       # Energy for active background per rank (pJ)
system.mem_ctrls_1.preBackEnergy              1513920                       # Energy for precharge background per rank (pJ)
system.mem_ctrls_1.actPowerDownEnergy       188999460                       # Energy for active power-down per rank (pJ)
system.mem_ctrls_1.prePowerDownEnergy        30472800                       # Energy for precharge power-down per rank (pJ)
system.mem_ctrls_1.selfRefreshEnergy        207803700                       # Energy for self refresh per rank (pJ)
system.mem_ctrls_1.totalEnergy              506894790                       # Total energy per rank (pJ)
system.mem_ctrls_1.averagePower            361.458649                       # Core power per rank (mW)
system.mem_ctrls_1.totalIdleTime           1348133000                       # Total Idle time Per DRAM Rank
system.mem_ctrls_1.memoryStateTime::IDLE      1835500                       # Time in different power states
system.mem_ctrls_1.memoryStateTime::REF      18200000                       # Time in different power states
system.mem_ctrls_1.memoryStateTime::SREF    854343000                       # Time in different power states
system.mem_ctrls_1.memoryStateTime::PRE_PDN     79346500                       # Time in different power states
system.mem_ctrls_1.memoryStateTime::ACT      34148250                       # Time in different power states
system.mem_ctrls_1.memoryStateTime::ACT_PDN    414485750                       # Time in different power states
system.pwrStateResidencyTicks::UNDEFINED   1402359000                       # Cumulative time (in ticks) in various power states
system.cpu.branchPred.lookups                 1380543                       # Number of BP lookups
system.cpu.branchPred.condPredicted           1380543                       # Number of conditional branches predicted
system.cpu.branchPred.condIncorrect            118212                       # Number of conditional branches incorrect
system.cpu.branchPred.BTBLookups               793540                       # Number of BTB lookups
system.cpu.branchPred.BTBHits                       0                       # Number of BTB hits
system.cpu.branchPred.BTBCorrect                    0                       # Number of correct BTB predictions (this stat may not work properly.
system.cpu.branchPred.BTBHitPct              0.000000                       # BTB Hit Percentage
system.cpu.branchPred.usedRAS                   19453                       # Number of times the RAS was used to get a target.
system.cpu.branchPred.RASInCorrect               3340                       # Number of incorrect RAS predictions.
system.cpu.branchPred.indirectLookups          793540                       # Number of indirect predictor lookups.
system.cpu.branchPred.indirectHits             407204                       # Number of indirect target hits.
system.cpu.branchPred.indirectMisses           386336                       # Number of indirect misses.
system.cpu.branchPredindirectMispredicted        45015                       # Number of mispredicted indirect branches.
system.cpu_voltage_domain.voltage                   1                       # Voltage in Volts
system.cpu_clk_domain.clock                       500                       # Clock period in ticks
system.cpu.dtb.walker.pwrStateResidencyTicks::UNDEFINED   1402359000                       # Cumulative time (in ticks) in various power states
system.cpu.dtb.rdAccesses                      564613                       # TLB accesses on read requests
system.cpu.dtb.wrAccesses                      397908                       # TLB accesses on write requests
system.cpu.dtb.rdMisses                           510                       # TLB misses on read requests
system.cpu.dtb.wrMisses                            85                       # TLB misses on write requests
system.cpu.apic_clk_domain.clock                 8000                       # Clock period in ticks
system.cpu.interrupts.pwrStateResidencyTicks::UNDEFINED   1402359000                       # Cumulative time (in ticks) in various power states
system.cpu.itb.walker.pwrStateResidencyTicks::UNDEFINED   1402359000                       # Cumulative time (in ticks) in various power states
system.cpu.itb.rdAccesses                           0                       # TLB accesses on read requests
system.cpu.itb.wrAccesses                      363013                       # TLB accesses on write requests
system.cpu.itb.rdMisses                             0                       # TLB misses on read requests
system.cpu.itb.wrMisses                           115                       # TLB misses on write requests
system.cpu.workload.numSyscalls                    27                       # Number of system calls
system.cpu.pwrStateResidencyTicks::ON      1402359000                       # Cumulative time (in ticks) in various power states
system.cpu.numCycles                          2804719                       # number of cpu cycles simulated
system.cpu.numWorkItemsStarted                      0                       # number of work items this cpu started
system.cpu.numWorkItemsCompleted                    0                       # number of work items this cpu completed
system.cpu.fetch.icacheStallCycles             442370                       # Number of cycles fetch is stalled on an Icache miss
system.cpu.fetch.Insts                        7890245                       # Number of instructions fetch has processed
system.cpu.fetch.Branches                     1380543                       # Number of branches that fetch encountered
system.cpu.fetch.predictedBranches             426657                       # Number of branches that fetch has predicted taken
system.cpu.fetch.Cycles                       2185057                       # Number of cycles fetch has run and was not squashing or blocked
system.cpu.fetch.SquashCycles                  236602                       # Number of cycles fetch has spent squashing
system.cpu.fetch.TlbCycles                        161                       # Number of cycles fetch has spent waiting for tlb
system.cpu.fetch.MiscStallCycles                   20                       # Number of cycles fetch has spent waiting on interrupts, or bad addresses, or out of MSHRs
system.cpu.fetch.PendingTrapStallCycles           349                       # Number of stall cycles due to pending traps
system.cpu.fetch.PendingQuiesceStallCycles           25                       # Number of stall cycles due to pending quiesce instructions
system.cpu.fetch.IcacheWaitRetryStallCycles           15                       # Number of stall cycles due to full MSHR
system.cpu.fetch.CacheLines                    362970                       # Number of cache lines fetched
system.cpu.fetch.IcacheSquashes                 20174                       # Number of outstanding Icache misses that were squashed
system.cpu.fetch.rateDist::samples            2746298                       # Number of instructions fetched each cycle (Total)
system.cpu.fetch.rateDist::mean              4.563844                       # Number of instructions fetched each cycle (Total)
system.cpu.fetch.rateDist::stdev             3.640185                       # Number of instructions fetched each cycle (Total)
system.cpu.fetch.rateDist::underflows               0      0.00%      0.00% # Number of instructions fetched each cycle (Total)
system.cpu.fetch.rateDist::0                   894441     32.57%     32.57% # Number of instructions fetched each cycle (Total)
system.cpu.fetch.rateDist::1                   112518      4.10%     36.67% # Number of instructions fetched each cycle (Total)
system.cpu.fetch.rateDist::2                    36272      1.32%     37.99% # Number of instructions fetched each cycle (Total)
system.cpu.fetch.rateDist::3                    79249      2.89%     40.87% # Number of instructions fetched each cycle (Total)
system.cpu.fetch.rateDist::4                   113631      4.14%     45.01% # Number of instructions fetched each cycle (Total)
system.cpu.fetch.rateDist::5                    56302      2.05%     47.06% # Number of instructions fetched each cycle (Total)
system.cpu.fetch.rateDist::6                    95669      3.48%     50.54% # Number of instructions fetched each cycle (Total)
system.cpu.fetch.rateDist::7                    64908      2.36%     52.91% # Number of instructions fetched each cycle (Total)
system.cpu.fetch.rateDist::8                  1293308     47.09%    100.00% # Number of instructions fetched each cycle (Total)
system.cpu.fetch.rateDist::overflows                0      0.00%    100.00% # Number of instructions fetched each cycle (Total)
system.cpu.fetch.rateDist::min_value                0                       # Number of instructions fetched each cycle (Total)
system.cpu.fetch.rateDist::max_value                8                       # Number of instructions fetched each cycle (Total)
system.cpu.fetch.rateDist::total              2746298                       # Number of instructions fetched each cycle (Total)
system.cpu.fetch.branchRate                  0.492222                       # Number of branch fetches per cycle
system.cpu.fetch.rate                        2.813203                       # Number of inst fetches per cycle
system.cpu.decode.IdleCycles                   429058                       # Number of cycles decode is idle
system.cpu.decode.BlockedCycles                683695                       # Number of cycles decode is blocked
system.cpu.decode.RunCycles                   1358013                       # Number of cycles decode is running
system.cpu.decode.UnblockCycles                157231                       # Number of cycles decode is unblocking
system.cpu.decode.SquashCycles                 118301                       # Number of cycles decode is squashing
system.cpu.decode.DecodedInsts               11355425                       # Number of instructions handled by decode
system.cpu.rename.SquashCycles                 118301                       # Number of cycles rename is squashing
system.cpu.rename.IdleCycles                   528518                       # Number of cycles rename is idle
system.cpu.rename.BlockCycles                  618278                       # Number of cycles rename is blocking
system.cpu.rename.serializeStallCycles           2826                       # count of cycles rename stalled for serializing inst
system.cpu.rename.RunCycles                   1373037                       # Number of cycles rename is running
system.cpu.rename.UnblockCycles                105338                       # Number of cycles rename is unblocking
system.cpu.rename.RenamedInsts               10660687                       # Number of instructions processed by rename
system.cpu.rename.ROBFullEvents                  3243                       # Number of times rename has blocked due to ROB full
system.cpu.rename.IQFullEvents                   8527                       # Number of times rename has blocked due to IQ full
system.cpu.rename.LQFullEvents                    367                       # Number of times rename has blocked due to LQ full
system.cpu.rename.SQFullEvents                  48782                       # Number of times rename has blocked due to SQ full
system.cpu.rename.RenamedOperands            13521756                       # Number of destination operands rename has renamed
system.cpu.rename.RenameLookups              25451908                       # Number of register rename lookups that rename has made
system.cpu.rename.int_rename_lookups         15601437                       # Number of integer rename lookups
system.cpu.rename.fp_rename_lookups             58881                       # Number of floating rename lookups
system.cpu.rename.CommittedMaps               6107197                       # Number of HB maps that are committed
system.cpu.rename.UndoneMaps                  7414559                       # Number of HB maps that are undone due to squashing
system.cpu.rename.serializingInsts                 89                       # count of serializing insts renamed
system.cpu.rename.tempSerializingInsts             60                       # count of temporary serializing insts renamed
system.cpu.rename.skidInsts                    412776                       # count of insts added to the skid buffer
system.cpu.memDep0.insertedLoads               705949                       # Number of loads inserted to the mem dependence unit.
system.cpu.memDep0.insertedStores              575983                       # Number of stores inserted to the mem dependence unit.
system.cpu.memDep0.conflictingLoads            102279                       # Number of conflicting loads.
system.cpu.memDep0.conflictingStores            61711                       # Number of conflicting stores.
system.cpu.iq.iqInstsAdded                    9244655                       # Number of instructions added to the IQ (excludes non-spec)
system.cpu.iq.iqNonSpecInstsAdded                  74                       # Number of non-speculative instructions added to the IQ
system.cpu.iq.iqInstsIssued                   7754550                       # Number of instructions issued
system.cpu.iq.iqSquashedInstsIssued            236223                       # Number of squashed instructions issued
system.cpu.iq.iqSquashedInstsExamined         4363721                       # Number of squashed instructions iterated over during squash; mainly for profiling
system.cpu.iq.iqSquashedOperandsExamined      5367031                       # Number of squashed operands that are examined and possibly removed from graph
system.cpu.iq.iqSquashedNonSpecRemoved             47                       # Number of squashed non-spec instructions that were removed
system.cpu.iq.issued_per_cycle::samples       2746298                       # Number of insts issued each cycle
system.cpu.iq.issued_per_cycle::mean         2.823637                       # Number of insts issued each cycle
system.cpu.iq.issued_per_cycle::stdev        2.882739                       # Number of insts issued each cycle
system.cpu.iq.issued_per_cycle::underflows            0      0.00%      0.00% # Number of insts issued each cycle
system.cpu.iq.issued_per_cycle::0             1211030     44.10%     44.10% # Number of insts issued each cycle
system.cpu.iq.issued_per_cycle::1               72582      2.64%     46.74% # Number of insts issued each cycle
system.cpu.iq.issued_per_cycle::2              121554      4.43%     51.17% # Number of insts issued each cycle
system.cpu.iq.issued_per_cycle::3              145895      5.31%     56.48% # Number of insts issued each cycle
system.cpu.iq.issued_per_cycle::4              247083      9.00%     65.48% # Number of insts issued each cycle
system.cpu.iq.issued_per_cycle::5              138872      5.06%     70.53% # Number of insts issued each cycle
system.cpu.iq.issued_per_cycle::6              481921     17.55%     88.08% # Number of insts issued each cycle
system.cpu.iq.issued_per_cycle::7              191931      6.99%     95.07% # Number of insts issued each cycle
system.cpu.iq.issued_per_cycle::8              135430      4.93%    100.00% # Number of insts issued each cycle
system.cpu.iq.issued_per_cycle::overflows            0      0.00%    100.00% # Number of insts issued each cycle
system.cpu.iq.issued_per_cycle::min_value            0                       # Number of insts issued each cycle
system.cpu.iq.issued_per_cycle::max_value            8                       # Number of insts issued each cycle
system.cpu.iq.issued_per_cycle::total         2746298                       # Number of insts issued each cycle
system.cpu.iq.fu_full::No_OpClass                   0      0.00%      0.00% # attempts to use FU when none available
system.cpu.iq.fu_full::IntAlu                  473365     99.70%     99.70% # attempts to use FU when none available
system.cpu.iq.fu_full::IntMult                      0      0.00%     99.70% # attempts to use FU when none available
system.cpu.iq.fu_full::IntDiv                       0      0.00%     99.70% # attempts to use FU when none available
system.cpu.iq.fu_full::FloatAdd                     0      0.00%     99.70% # attempts to use FU when none available
system.cpu.iq.fu_full::FloatCmp                     0      0.00%     99.70% # attempts to use FU when none available
system.cpu.iq.fu_full::FloatCvt                     0      0.00%     99.70% # attempts to use FU when none available
system.cpu.iq.fu_full::FloatMult                    0      0.00%     99.70% # attempts to use FU when none available
system.cpu.iq.fu_full::FloatMultAcc                 0      0.00%     99.70% # attempts to use FU when none available
system.cpu.iq.fu_full::FloatDiv                     0      0.00%     99.70% # attempts to use FU when none available
system.cpu.iq.fu_full::FloatMisc                    0      0.00%     99.70% # attempts to use FU when none available
system.cpu.iq.fu_full::FloatSqrt                    0      0.00%     99.70% # attempts to use FU when none available
system.cpu.iq.fu_full::SimdAdd                      0      0.00%     99.70% # attempts to use FU when none available
system.cpu.iq.fu_full::SimdAddAcc                   0      0.00%     99.70% # attempts to use FU when none available
system.cpu.iq.fu_full::SimdAlu                     14      0.00%     99.70% # attempts to use FU when none available
system.cpu.iq.fu_full::SimdCmp                      0      0.00%     99.70% # attempts to use FU when none available
system.cpu.iq.fu_full::SimdCvt                     11      0.00%     99.70% # attempts to use FU when none available
system.cpu.iq.fu_full::SimdMisc                     2      0.00%     99.70% # attempts to use FU when none available
system.cpu.iq.fu_full::SimdMult                     0      0.00%     99.70% # attempts to use FU when none available
system.cpu.iq.fu_full::SimdMultAcc                  0      0.00%     99.70% # attempts to use FU when none available
system.cpu.iq.fu_full::SimdShift                    0      0.00%     99.70% # attempts to use FU when none available
system.cpu.iq.fu_full::SimdShiftAcc                 0      0.00%     99.70% # attempts to use FU when none available
system.cpu.iq.fu_full::SimdSqrt                     0      0.00%     99.70% # attempts to use FU when none available
system.cpu.iq.fu_full::SimdFloatAdd                 0      0.00%     99.70% # attempts to use FU when none available
system.cpu.iq.fu_full::SimdFloatAlu                 0      0.00%     99.70% # attempts to use FU when none available
system.cpu.iq.fu_full::SimdFloatCmp                 0      0.00%     99.70% # attempts to use FU when none available
system.cpu.iq.fu_full::SimdFloatCvt                 0      0.00%     99.70% # attempts to use FU when none available
system.cpu.iq.fu_full::SimdFloatDiv                 0      0.00%     99.70% # attempts to use FU when none available
system.cpu.iq.fu_full::SimdFloatMisc                0      0.00%     99.70% # attempts to use FU when none available
system.cpu.iq.fu_full::SimdFloatMult                0      0.00%     99.70% # attempts to use FU when none available
system.cpu.iq.fu_full::SimdFloatMultAcc             0      0.00%     99.70% # attempts to use FU when none available
system.cpu.iq.fu_full::SimdFloatSqrt                0      0.00%     99.70% # attempts to use FU when none available
system.cpu.iq.fu_full::SimdAes                      0      0.00%     99.70% # attempts to use FU when none available
system.cpu.iq.fu_full::SimdAesMix                   0      0.00%     99.70% # attempts to use FU when none available
system.cpu.iq.fu_full::SimdSha1Hash                 0      0.00%     99.70% # attempts to use FU when none available
system.cpu.iq.fu_full::SimdSha1Hash2                0      0.00%     99.70% # attempts to use FU when none available
system.cpu.iq.fu_full::SimdSha256Hash               0      0.00%     99.70% # attempts to use FU when none available
system.cpu.iq.fu_full::SimdSha256Hash2              0      0.00%     99.70% # attempts to use FU when none available
system.cpu.iq.fu_full::SimdShaSigma2                0      0.00%     99.70% # attempts to use FU when none available
system.cpu.iq.fu_full::SimdShaSigma3                0      0.00%     99.70% # attempts to use FU when none available
system.cpu.iq.fu_full::MemRead                    670      0.14%     99.85% # attempts to use FU when none available
system.cpu.iq.fu_full::MemWrite                   446      0.09%     99.94% # attempts to use FU when none available
system.cpu.iq.fu_full::FloatMemRead               149      0.03%     99.97% # attempts to use FU when none available
system.cpu.iq.fu_full::FloatMemWrite              137      0.03%    100.00% # attempts to use FU when none available
system.cpu.iq.fu_full::IprAccess                    0      0.00%    100.00% # attempts to use FU when none available
system.cpu.iq.fu_full::InstPrefetch                 0      0.00%    100.00% # attempts to use FU when none available
system.cpu.iq.FU_type_0::No_OpClass             50112      0.65%      0.65% # Type of FU issued
system.cpu.iq.FU_type_0::IntAlu               6674847     86.08%     86.72% # Type of FU issued
system.cpu.iq.FU_type_0::IntMult                   24      0.00%     86.72% # Type of FU issued
system.cpu.iq.FU_type_0::IntDiv                  1162      0.01%     86.74% # Type of FU issued
system.cpu.iq.FU_type_0::FloatAdd                 193      0.00%     86.74% # Type of FU issued
system.cpu.iq.FU_type_0::FloatCmp                   0      0.00%     86.74% # Type of FU issued
system.cpu.iq.FU_type_0::FloatCvt                   0      0.00%     86.74% # Type of FU issued
system.cpu.iq.FU_type_0::FloatMult                  0      0.00%     86.74% # Type of FU issued
system.cpu.iq.FU_type_0::FloatMultAcc               0      0.00%     86.74% # Type of FU issued
system.cpu.iq.FU_type_0::FloatDiv                   0      0.00%     86.74% # Type of FU issued
system.cpu.iq.FU_type_0::FloatMisc                  0      0.00%     86.74% # Type of FU issued
system.cpu.iq.FU_type_0::FloatSqrt                  0      0.00%     86.74% # Type of FU issued
system.cpu.iq.FU_type_0::SimdAdd                  397      0.01%     86.75% # Type of FU issued
system.cpu.iq.FU_type_0::SimdAddAcc                 0      0.00%     86.75% # Type of FU issued
system.cpu.iq.FU_type_0::SimdAlu                  823      0.01%     86.76% # Type of FU issued
system.cpu.iq.FU_type_0::SimdCmp                    6      0.00%     86.76% # Type of FU issued
system.cpu.iq.FU_type_0::SimdCvt                  985      0.01%     86.77% # Type of FU issued
system.cpu.iq.FU_type_0::SimdMisc                 606      0.01%     86.78% # Type of FU issued
system.cpu.iq.FU_type_0::SimdMult                   0      0.00%     86.78% # Type of FU issued
system.cpu.iq.FU_type_0::SimdMultAcc                0      0.00%     86.78% # Type of FU issued
system.cpu.iq.FU_type_0::SimdShift                219      0.00%     86.78% # Type of FU issued
system.cpu.iq.FU_type_0::SimdShiftAcc               0      0.00%     86.78% # Type of FU issued
system.cpu.iq.FU_type_0::SimdSqrt                   0      0.00%     86.78% # Type of FU issued
system.cpu.iq.FU_type_0::SimdFloatAdd               0      0.00%     86.78% # Type of FU issued
system.cpu.iq.FU_type_0::SimdFloatAlu               0      0.00%     86.78% # Type of FU issued
system.cpu.iq.FU_type_0::SimdFloatCmp               0      0.00%     86.78% # Type of FU issued
system.cpu.iq.FU_type_0::SimdFloatCvt               0      0.00%     86.78% # Type of FU issued
system.cpu.iq.FU_type_0::SimdFloatDiv               0      0.00%     86.78% # Type of FU issued
system.cpu.iq.FU_type_0::SimdFloatMisc              0      0.00%     86.78% # Type of FU issued
system.cpu.iq.FU_type_0::SimdFloatMult              0      0.00%     86.78% # Type of FU issued
system.cpu.iq.FU_type_0::SimdFloatMultAcc            0      0.00%     86.78% # Type of FU issued
system.cpu.iq.FU_type_0::SimdFloatSqrt              0      0.00%     86.78% # Type of FU issued
system.cpu.iq.FU_type_0::SimdAes                    0      0.00%     86.78% # Type of FU issued
system.cpu.iq.FU_type_0::SimdAesMix                 0      0.00%     86.78% # Type of FU issued
system.cpu.iq.FU_type_0::SimdSha1Hash               0      0.00%     86.78% # Type of FU issued
system.cpu.iq.FU_type_0::SimdSha1Hash2              0      0.00%     86.78% # Type of FU issued
system.cpu.iq.FU_type_0::SimdSha256Hash             0      0.00%     86.78% # Type of FU issued
system.cpu.iq.FU_type_0::SimdSha256Hash2            0      0.00%     86.78% # Type of FU issued
system.cpu.iq.FU_type_0::SimdShaSigma2              0      0.00%     86.78% # Type of FU issued
system.cpu.iq.FU_type_0::SimdShaSigma3              0      0.00%     86.78% # Type of FU issued
system.cpu.iq.FU_type_0::MemRead               545768      7.04%     93.82% # Type of FU issued
system.cpu.iq.FU_type_0::MemWrite              392285      5.06%     98.88% # Type of FU issued
system.cpu.iq.FU_type_0::FloatMemRead           45291      0.58%     99.46% # Type of FU issued
system.cpu.iq.FU_type_0::FloatMemWrite          41832      0.54%    100.00% # Type of FU issued
system.cpu.iq.FU_type_0::IprAccess                  0      0.00%    100.00% # Type of FU issued
system.cpu.iq.FU_type_0::InstPrefetch               0      0.00%    100.00% # Type of FU issued
system.cpu.iq.FU_type_0::total                7754550                       # Type of FU issued
system.cpu.iq.rate                           2.764822                       # Inst issue rate
system.cpu.iq.fu_busy_cnt                      474794                       # FU busy when requested
system.cpu.iq.fu_busy_rate                   0.061228                       # FU busy rate (busy events/executed inst)
system.cpu.iq.int_inst_queue_reads           18785182                       # Number of integer instruction queue reads
system.cpu.iq.int_inst_queue_writes          13498709                       # Number of integer instruction queue writes
system.cpu.iq.int_inst_queue_wakeup_accesses      7389031                       # Number of integer instruction queue wakeup accesses
system.cpu.iq.fp_inst_queue_reads              181233                       # Number of floating instruction queue reads
system.cpu.iq.fp_inst_queue_writes             109836                       # Number of floating instruction queue writes
system.cpu.iq.fp_inst_queue_wakeup_accesses        87123                       # Number of floating instruction queue wakeup accesses
system.cpu.iq.vec_inst_queue_reads                  0                       # Number of vector instruction queue reads
system.cpu.iq.vec_inst_queue_writes                 0                       # Number of vector instruction queue writes
system.cpu.iq.vec_inst_queue_wakeup_accesses            0                       # Number of vector instruction queue wakeup accesses
system.cpu.iq.int_alu_accesses                8088500                       # Number of integer alu accesses
system.cpu.iq.fp_alu_accesses                   90732                       # Number of floating point alu accesses
system.cpu.iq.vec_alu_accesses                      0                       # Number of vector alu accesses
system.cpu.iew.lsq.thread0.forwLoads            29281                       # Number of loads that had data forwarded from stores
system.cpu.iew.lsq.thread0.invAddrLoads             0                       # Number of loads ignored due to an invalid address
system.cpu.iew.lsq.thread0.squashedLoads       286559                       # Number of loads squashed
system.cpu.iew.lsq.thread0.ignoredResponses          131                       # Number of memory responses ignored because the instruction is squashed
system.cpu.iew.lsq.thread0.memOrderViolation           97                       # Number of memory ordering violations
system.cpu.iew.lsq.thread0.squashedStores       267446                       # Number of stores squashed
system.cpu.iew.lsq.thread0.invAddrSwpfs             0                       # Number of software prefetches ignored due to an invalid address
system.cpu.iew.lsq.thread0.blockedLoads             0                       # Number of blocked loads due to partial load-store forwarding
system.cpu.iew.lsq.thread0.rescheduledLoads            4                       # Number of loads that were rescheduled
system.cpu.iew.lsq.thread0.cacheBlocked           227                       # Number of times an access to memory failed due to the cache being blocked
system.cpu.iew.iewIdleCycles                        0                       # Number of cycles IEW is idle
system.cpu.iew.iewSquashCycles                 118301                       # Number of cycles IEW is squashing
system.cpu.iew.iewBlockCycles                  551964                       # Number of cycles IEW is blocking
system.cpu.iew.iewUnblockCycles                  6424                       # Number of cycles IEW is unblocking
system.cpu.iew.iewDispatchedInsts             9244729                       # Number of instructions dispatched to IQ
system.cpu.iew.iewDispSquashedInsts              6719                       # Number of squashed instructions skipped by dispatch
system.cpu.iew.iewDispLoadInsts                705949                       # Number of dispatched load instructions
system.cpu.iew.iewDispStoreInsts               575983                       # Number of dispatched store instructions
system.cpu.iew.iewDispNonSpecInsts                 55                       # Number of dispatched non-speculative instructions
system.cpu.iew.iewIQFullEvents                    639                       # Number of times the IQ has become full, causing a stall
system.cpu.iew.iewLSQFullEvents                  5566                       # Number of times the LSQ has become full, causing a stall
system.cpu.iew.memOrderViolationEvents             97                       # Number of memory order violations
system.cpu.iew.predictedTakenIncorrect          46743                       # Number of branches that were predicted taken incorrectly
system.cpu.iew.predictedNotTakenIncorrect        87686                       # Number of branches that were predicted not taken incorrectly
system.cpu.iew.branchMispredicts               134429                       # Number of branch mispredicts detected at execute
system.cpu.iew.iewExecutedInsts               7563869                       # Number of executed instructions
system.cpu.iew.iewExecLoadInsts                564584                       # Number of load instructions executed
system.cpu.iew.iewExecSquashedInsts            190681                       # Number of squashed instructions skipped in execute
system.cpu.iew.exec_swp                             0                       # number of swp insts executed
system.cpu.iew.exec_nop                             0                       # number of nop insts executed
system.cpu.iew.exec_refs                       962489                       # number of memory reference insts executed
system.cpu.iew.exec_branches                   783314                       # Number of branches executed
system.cpu.iew.exec_stores                     397905                       # Number of stores executed
system.cpu.iew.exec_rate                     2.696837                       # Inst execution rate
system.cpu.iew.wb_sent                        7526182                       # cumulative count of insts sent to commit
system.cpu.iew.wb_count                       7476154                       # cumulative count of insts written-back
system.cpu.iew.wb_producers                   5451695                       # num instructions producing a value
system.cpu.iew.wb_consumers                   7982219                       # num instructions consuming a value
system.cpu.iew.wb_rate                       2.665563                       # insts written-back per cycle
system.cpu.iew.wb_fanout                     0.682980                       # average fanout of values written-back
system.cpu.commit.commitSquashedInsts         4363804                       # The number of squashed insts skipped by commit
system.cpu.commit.commitNonSpecStalls              27                       # The number of times commit has been forced to stall to communicate backwards
system.cpu.commit.branchMispredicts            118230                       # The number of times a branch was mispredicted
system.cpu.commit.committed_per_cycle::samples      2127268                       # Number of insts commited each cycle
system.cpu.commit.committed_per_cycle::mean     2.294496                       # Number of insts commited each cycle
system.cpu.commit.committed_per_cycle::stdev     2.931325                       # Number of insts commited each cycle
system.cpu.commit.committed_per_cycle::underflows            0      0.00%      0.00% # Number of insts commited each cycle
system.cpu.commit.committed_per_cycle::0       975950     45.88%     45.88% # Number of insts commited each cycle
system.cpu.commit.committed_per_cycle::1       257465     12.10%     57.98% # Number of insts commited each cycle
system.cpu.commit.committed_per_cycle::2       182765      8.59%     66.57% # Number of insts commited each cycle
system.cpu.commit.committed_per_cycle::3       148992      7.00%     73.58% # Number of insts commited each cycle
system.cpu.commit.committed_per_cycle::4        83904      3.94%     77.52% # Number of insts commited each cycle
system.cpu.commit.committed_per_cycle::5        55142      2.59%     80.11% # Number of insts commited each cycle
system.cpu.commit.committed_per_cycle::6        61511      2.89%     83.00% # Number of insts commited each cycle
system.cpu.commit.committed_per_cycle::7        61668      2.90%     85.90% # Number of insts commited each cycle
system.cpu.commit.committed_per_cycle::8       299871     14.10%    100.00% # Number of insts commited each cycle
system.cpu.commit.committed_per_cycle::overflows            0      0.00%    100.00% # Number of insts commited each cycle
system.cpu.commit.committed_per_cycle::min_value            0                       # Number of insts commited each cycle
system.cpu.commit.committed_per_cycle::max_value            8                       # Number of insts commited each cycle
system.cpu.commit.committed_per_cycle::total      2127268                       # Number of insts commited each cycle
system.cpu.commit.committedInsts              2992979                       # Number of instructions committed
system.cpu.commit.committedOps                4881007                       # Number of ops (including micro ops) committed
system.cpu.commit.swp_count                         0                       # Number of s/w prefetches committed
system.cpu.commit.refs                         727927                       # Number of memory references committed
system.cpu.commit.loads                        419390                       # Number of loads committed
system.cpu.commit.membars                           0                       # Number of memory barriers committed
system.cpu.commit.branches                     542904                       # Number of branches committed
system.cpu.commit.vec_insts                         0                       # Number of committed Vector instructions.
system.cpu.commit.fp_insts                      84924                       # Number of committed floating point instructions.
system.cpu.commit.int_insts                   4862764                       # Number of committed integer instructions.
system.cpu.commit.function_calls                 8777                       # Number of function calls committed.
system.cpu.commit.op_class_0::No_OpClass        16511      0.34%      0.34% # Class of committed instruction
system.cpu.commit.op_class_0::IntAlu          4133516     84.69%     85.02% # Class of committed instruction
system.cpu.commit.op_class_0::IntMult              11      0.00%     85.02% # Class of committed instruction
system.cpu.commit.op_class_0::IntDiv             1083      0.02%     85.05% # Class of committed instruction
system.cpu.commit.op_class_0::FloatAdd             18      0.00%     85.05% # Class of committed instruction
system.cpu.commit.op_class_0::FloatCmp              0      0.00%     85.05% # Class of committed instruction
system.cpu.commit.op_class_0::FloatCvt              0      0.00%     85.05% # Class of committed instruction
system.cpu.commit.op_class_0::FloatMult             0      0.00%     85.05% # Class of committed instruction
system.cpu.commit.op_class_0::FloatMultAcc            0      0.00%     85.05% # Class of committed instruction
system.cpu.commit.op_class_0::FloatDiv              0      0.00%     85.05% # Class of committed instruction
system.cpu.commit.op_class_0::FloatMisc             0      0.00%     85.05% # Class of committed instruction
system.cpu.commit.op_class_0::FloatSqrt             0      0.00%     85.05% # Class of committed instruction
system.cpu.commit.op_class_0::SimdAdd             284      0.01%     85.05% # Class of committed instruction
system.cpu.commit.op_class_0::SimdAddAcc            0      0.00%     85.05% # Class of committed instruction
system.cpu.commit.op_class_0::SimdAlu             403      0.01%     85.06% # Class of committed instruction
system.cpu.commit.op_class_0::SimdCmp               6      0.00%     85.06% # Class of committed instruction
system.cpu.commit.op_class_0::SimdCvt             664      0.01%     85.07% # Class of committed instruction
system.cpu.commit.op_class_0::SimdMisc            482      0.01%     85.08% # Class of committed instruction
system.cpu.commit.op_class_0::SimdMult              0      0.00%     85.08% # Class of committed instruction
system.cpu.commit.op_class_0::SimdMultAcc            0      0.00%     85.08% # Class of committed instruction
system.cpu.commit.op_class_0::SimdShift           102      0.00%     85.09% # Class of committed instruction
system.cpu.commit.op_class_0::SimdShiftAcc            0      0.00%     85.09% # Class of committed instruction
system.cpu.commit.op_class_0::SimdSqrt              0      0.00%     85.09% # Class of committed instruction
system.cpu.commit.op_class_0::SimdFloatAdd            0      0.00%     85.09% # Class of committed instruction
system.cpu.commit.op_class_0::SimdFloatAlu            0      0.00%     85.09% # Class of committed instruction
system.cpu.commit.op_class_0::SimdFloatCmp            0      0.00%     85.09% # Class of committed instruction
system.cpu.commit.op_class_0::SimdFloatCvt            0      0.00%     85.09% # Class of committed instruction
system.cpu.commit.op_class_0::SimdFloatDiv            0      0.00%     85.09% # Class of committed instruction
system.cpu.commit.op_class_0::SimdFloatMisc            0      0.00%     85.09% # Class of committed instruction
system.cpu.commit.op_class_0::SimdFloatMult            0      0.00%     85.09% # Class of committed instruction
system.cpu.commit.op_class_0::SimdFloatMultAcc            0      0.00%     85.09% # Class of committed instruction
system.cpu.commit.op_class_0::SimdFloatSqrt            0      0.00%     85.09% # Class of committed instruction
system.cpu.commit.op_class_0::SimdAes               0      0.00%     85.09% # Class of committed instruction
system.cpu.commit.op_class_0::SimdAesMix            0      0.00%     85.09% # Class of committed instruction
system.cpu.commit.op_class_0::SimdSha1Hash            0      0.00%     85.09% # Class of committed instruction
system.cpu.commit.op_class_0::SimdSha1Hash2            0      0.00%     85.09% # Class of committed instruction
system.cpu.commit.op_class_0::SimdSha256Hash            0      0.00%     85.09% # Class of committed instruction
system.cpu.commit.op_class_0::SimdSha256Hash2            0      0.00%     85.09% # Class of committed instruction
system.cpu.commit.op_class_0::SimdShaSigma2            0      0.00%     85.09% # Class of committed instruction
system.cpu.commit.op_class_0::SimdShaSigma3            0      0.00%     85.09% # Class of committed instruction
system.cpu.commit.op_class_0::MemRead          377768      7.74%     92.83% # Class of committed instruction
system.cpu.commit.op_class_0::MemWrite         267241      5.48%     98.30% # Class of committed instruction
system.cpu.commit.op_class_0::FloatMemRead        41622      0.85%     99.15% # Class of committed instruction
system.cpu.commit.op_class_0::FloatMemWrite        41296      0.85%    100.00% # Class of committed instruction
system.cpu.commit.op_class_0::IprAccess             0      0.00%    100.00% # Class of committed instruction
system.cpu.commit.op_class_0::InstPrefetch            0      0.00%    100.00% # Class of committed instruction
system.cpu.commit.op_class_0::total           4881007                       # Class of committed instruction
system.cpu.commit.bw_lim_events                299871                       # number cycles where commit BW limit reached
system.cpu.rob.rob_reads                     11072208                       # The number of ROB reads
system.cpu.rob.rob_writes                    19116832                       # The number of ROB writes
system.cpu.timesIdled                             509                       # Number of times that the entire CPU went into an idle state and unscheduled itself
system.cpu.idleCycles                           58421                       # Total number of cycles that the CPU has spent unscheduled due to idling
system.cpu.committedInsts                     2992979                       # Number of Instructions Simulated
system.cpu.committedOps                       4881007                       # Number of Ops (including micro ops) Simulated
system.cpu.cpi                               0.937099                       # CPI: Cycles Per Instruction
system.cpu.cpi_total                         0.937099                       # CPI: Total CPI of All Threads
system.cpu.ipc                               1.067123                       # IPC: Instructions Per Cycle
system.cpu.ipc_total                         1.067123                       # IPC: Total IPC of All Threads
system.cpu.int_regfile_reads                 10299664                       # number of integer regfile reads
system.cpu.int_regfile_writes                 6253947                       # number of integer regfile writes
system.cpu.fp_regfile_reads                     48365                       # number of floating regfile reads
system.cpu.fp_regfile_writes                    46112                       # number of floating regfile writes
system.cpu.cc_regfile_reads                   3589266                       # number of cc regfile reads
system.cpu.cc_regfile_writes                  3243017                       # number of cc regfile writes
system.cpu.misc_regfile_reads                 2666392                       # number of misc regfile reads
system.cpu.dcache.tags.pwrStateResidencyTicks::UNDEFINED   1402359000                       # Cumulative time (in ticks) in various power states
system.cpu.dcache.tags.tagsinuse           992.288001                       # Cycle average of tags in use
system.cpu.dcache.tags.total_refs              835802                       # Total number of references to valid blocks.
system.cpu.dcache.tags.sampled_refs              3623                       # Sample count of references to valid blocks.
system.cpu.dcache.tags.avg_refs            230.693348                       # Average number of references to valid blocks.
system.cpu.dcache.tags.warmup_cycle            169000                       # Cycle when the warmup percentage was hit.
system.cpu.dcache.tags.occ_blocks::.cpu.data   992.288001                       # Average occupied blocks per requestor
system.cpu.dcache.tags.occ_percent::.cpu.data     0.969031                       # Average percentage of cache occupancy
system.cpu.dcache.tags.occ_percent::total     0.969031                       # Average percentage of cache occupancy
system.cpu.dcache.tags.occ_task_id_blocks::1024         1024                       # Occupied blocks per task id
system.cpu.dcache.tags.age_task_id_blocks_1024::0          251                       # Occupied blocks per task id
system.cpu.dcache.tags.age_task_id_blocks_1024::1          315                       # Occupied blocks per task id
system.cpu.dcache.tags.age_task_id_blocks_1024::2          281                       # Occupied blocks per task id
system.cpu.dcache.tags.age_task_id_blocks_1024::3          177                       # Occupied blocks per task id
system.cpu.dcache.tags.occ_task_id_percent::1024            1                       # Percentage of cache occupancy per task id
system.cpu.dcache.tags.tag_accesses          13494887                       # Number of tag accesses
system.cpu.dcache.tags.data_accesses         13494887                       # Number of data accesses
system.cpu.dcache.pwrStateResidencyTicks::UNDEFINED   1402359000                       # Cumulative time (in ticks) in various power states
system.cpu.dcache.ReadReq_hits::.cpu.data       525087                       # number of ReadReq hits
system.cpu.dcache.ReadReq_hits::total          525087                       # number of ReadReq hits
system.cpu.dcache.WriteReq_hits::.cpu.data       307092                       # number of WriteReq hits
system.cpu.dcache.WriteReq_hits::total         307092                       # number of WriteReq hits
system.cpu.dcache.demand_hits::.cpu.data       832179                       # number of demand (read+write) hits
system.cpu.dcache.demand_hits::total           832179                       # number of demand (read+write) hits
system.cpu.dcache.overall_hits::.cpu.data       832179                       # number of overall hits
system.cpu.dcache.overall_hits::total          832179                       # number of overall hits
system.cpu.dcache.ReadReq_misses::.cpu.data         9580                       # number of ReadReq misses
system.cpu.dcache.ReadReq_misses::total          9580                       # number of ReadReq misses
system.cpu.dcache.WriteReq_misses::.cpu.data         1445                       # number of WriteReq misses
system.cpu.dcache.WriteReq_misses::total         1445                       # number of WriteReq misses
system.cpu.dcache.demand_misses::.cpu.data        11025                       # number of demand (read+write) misses
system.cpu.dcache.demand_misses::total          11025                       # number of demand (read+write) misses
system.cpu.dcache.overall_misses::.cpu.data        11025                       # number of overall misses
system.cpu.dcache.overall_misses::total         11025                       # number of overall misses
system.cpu.dcache.ReadReq_miss_latency::.cpu.data    460722000                       # number of ReadReq miss cycles
system.cpu.dcache.ReadReq_miss_latency::total    460722000                       # number of ReadReq miss cycles
system.cpu.dcache.WriteReq_miss_latency::.cpu.data     87091500                       # number of WriteReq miss cycles
system.cpu.dcache.WriteReq_miss_latency::total     87091500                       # number of WriteReq miss cycles
system.cpu.dcache.demand_miss_latency::.cpu.data    547813500                       # number of demand (read+write) miss cycles
system.cpu.dcache.demand_miss_latency::total    547813500                       # number of demand (read+write) miss cycles
system.cpu.dcache.overall_miss_latency::.cpu.data    547813500                       # number of overall miss cycles
system.cpu.dcache.overall_miss_latency::total    547813500                       # number of overall miss cycles
system.cpu.dcache.ReadReq_accesses::.cpu.data       534667                       # number of ReadReq accesses(hits+misses)
system.cpu.dcache.ReadReq_accesses::total       534667                       # number of ReadReq accesses(hits+misses)
[...]
system.l2.WritebackClean_accesses::total          106                       # number of WritebackClean accesses(hits+misses)
system.l2.ReadExReq_accesses::.cpu.data          1439                       # number of ReadExReq accesses(hits+misses)
system.l2.ReadExReq_accesses::total              1439                       # number of ReadExReq accesses(hits+misses)
system.l2.ReadCleanReq_accesses::.cpu.inst          841                       # number of ReadCleanReq accesses(hits+misses)
system.l2.ReadCleanReq_accesses::total            841                       # number of ReadCleanReq accesses(hits+misses)
system.l2.ReadSharedReq_accesses::.cpu.data         2184                       # number of ReadSharedReq accesses(hits+misses)
system.l2.ReadSharedReq_accesses::total          2184                       # number of ReadSharedReq accesses(hits+misses)
system.l2.demand_accesses::.cpu.inst              841                       # number of demand (read+write) accesses
system.l2.demand_accesses::.cpu.data             3623                       # number of demand (read+write) accesses
system.l2.demand_accesses::total                 4464                       # number of demand (read+write) accesses
system.l2.overall_accesses::.cpu.inst             841                       # number of overall (read+write) accesses
system.l2.overall_accesses::.cpu.data            3623                       # number of overall (read+write) accesses
system.l2.overall_accesses::total                4464                       # number of overall (read+write) accesses
system.l2.ReadExReq_miss_rate::.cpu.data     0.643502                       # miss rate for ReadExReq accesses
system.l2.ReadExReq_miss_rate::total         0.643502                       # miss rate for ReadExReq accesses
system.l2.ReadCleanReq_miss_rate::.cpu.inst     0.985731                       # miss rate for ReadCleanReq accesses
system.l2.ReadCleanReq_miss_rate::total      0.985731                       # miss rate for ReadCleanReq accesses
system.l2.ReadSharedReq_miss_rate::.cpu.data     0.723901                       # miss rate for ReadSharedReq accesses
system.l2.ReadSharedReq_miss_rate::total     0.723901                       # miss rate for ReadSharedReq accesses
system.l2.demand_miss_rate::.cpu.inst        0.985731                       # miss rate for demand accesses
system.l2.demand_miss_rate::.cpu.data        0.691968                       # miss rate for demand accesses
system.l2.demand_miss_rate::total            0.747312                       # miss rate for demand accesses
system.l2.overall_miss_rate::.cpu.inst       0.985731                       # miss rate for overall accesses
system.l2.overall_miss_rate::.cpu.data       0.691968                       # miss rate for overall accesses
system.l2.overall_miss_rate::total           0.747312                       # miss rate for overall accesses
system.l2.ReadExReq_avg_miss_latency::.cpu.data 84021.598272                       # average ReadExReq miss latency
system.l2.ReadExReq_avg_miss_latency::total 84021.598272                       # average ReadExReq miss latency
system.l2.ReadCleanReq_avg_miss_latency::.cpu.inst 77616.405308                       # average ReadCleanReq miss latency
system.l2.ReadCleanReq_avg_miss_latency::total 77616.405308                       # average ReadCleanReq miss latency
system.l2.ReadSharedReq_avg_miss_latency::.cpu.data 79276.723593                       # average ReadSharedReq miss latency
system.l2.ReadSharedReq_avg_miss_latency::total 79276.723593                       # average ReadSharedReq miss latency
system.l2.demand_avg_miss_latency::.cpu.inst 77616.405308                       # average overall miss latency
system.l2.demand_avg_miss_latency::.cpu.data 81029.317910                       # average overall miss latency
system.l2.demand_avg_miss_latency::total 80181.205036                       # average overall miss latency
system.l2.overall_avg_miss_latency::.cpu.inst 77616.405308                       # average overall miss latency
system.l2.overall_avg_miss_latency::.cpu.data 81029.317910                       # average overall miss latency
system.l2.overall_avg_miss_latency::total 80181.205036                       # average overall miss latency
system.l2.blocked_cycles::no_mshrs                  0                       # number of cycles access was blocked
system.l2.blocked_cycles::no_targets                0                       # number of cycles access was blocked
system.l2.blocked::no_mshrs                         0                       # number of cycles access was blocked
system.l2.blocked::no_targets                       0                       # number of cycles access was blocked
system.l2.avg_blocked_cycles::no_mshrs            nan                       # average number of cycles each access was blocked
system.l2.avg_blocked_cycles::no_targets          nan                       # average number of cycles each access was blocked
system.l2.ReadExReq_mshr_misses::.cpu.data          926                       # number of ReadExReq MSHR misses
system.l2.ReadExReq_mshr_misses::total            926                       # number of ReadExReq MSHR misses
system.l2.ReadCleanReq_mshr_misses::.cpu.inst          829                       # number of ReadCleanReq MSHR misses
system.l2.ReadCleanReq_mshr_misses::total          829                       # number of ReadCleanReq MSHR misses
system.l2.ReadSharedReq_mshr_misses::.cpu.data         1581                       # number of ReadSharedReq MSHR misses
system.l2.ReadSharedReq_mshr_misses::total         1581                       # number of ReadSharedReq MSHR misses
system.l2.demand_mshr_misses::.cpu.inst           829                       # number of demand (read+write) MSHR misses
system.l2.demand_mshr_misses::.cpu.data          2507                       # number of demand (read+write) MSHR misses
system.l2.demand_mshr_misses::total              3336                       # number of demand (read+write) MSHR misses
system.l2.overall_mshr_misses::.cpu.inst          829                       # number of overall MSHR misses
system.l2.overall_mshr_misses::.cpu.data         2507                       # number of overall MSHR misses
system.l2.overall_mshr_misses::total             3336                       # number of overall MSHR misses
system.l2.ReadExReq_mshr_miss_latency::.cpu.data     68544000                       # number of ReadExReq MSHR miss cycles
system.l2.ReadExReq_mshr_miss_latency::total     68544000                       # number of ReadExReq MSHR miss cycles
system.l2.ReadCleanReq_mshr_miss_latency::.cpu.inst     56054000                       # number of ReadCleanReq MSHR miss cycles
system.l2.ReadCleanReq_mshr_miss_latency::total     56054000                       # number of ReadCleanReq MSHR miss cycles
system.l2.ReadSharedReq_mshr_miss_latency::.cpu.data    109526500                       # number of ReadSharedReq MSHR miss cycles
system.l2.ReadSharedReq_mshr_miss_latency::total    109526500                       # number of ReadSharedReq MSHR miss cycles
system.l2.demand_mshr_miss_latency::.cpu.inst     56054000                       # number of demand (read+write) MSHR miss cycles
system.l2.demand_mshr_miss_latency::.cpu.data    178070500                       # number of demand (read+write) MSHR miss cycles
system.l2.demand_mshr_miss_latency::total    234124500                       # number of demand (read+write) MSHR miss cycles
system.l2.overall_mshr_miss_latency::.cpu.inst     56054000                       # number of overall MSHR miss cycles
system.l2.overall_mshr_miss_latency::.cpu.data    178070500                       # number of overall MSHR miss cycles
system.l2.overall_mshr_miss_latency::total    234124500                       # number of overall MSHR miss cycles
system.l2.ReadExReq_mshr_miss_rate::.cpu.data     0.643502                       # mshr miss rate for ReadExReq accesses
system.l2.ReadExReq_mshr_miss_rate::total     0.643502                       # mshr miss rate for ReadExReq accesses
system.l2.ReadCleanReq_mshr_miss_rate::.cpu.inst     0.985731                       # mshr miss rate for ReadCleanReq accesses
system.l2.ReadCleanReq_mshr_miss_rate::total     0.985731                       # mshr miss rate for ReadCleanReq accesses
system.l2.ReadSharedReq_mshr_miss_rate::.cpu.data     0.723901                       # mshr miss rate for ReadSharedReq accesses
system.l2.ReadSharedReq_mshr_miss_rate::total     0.723901                       # mshr miss rate for ReadSharedReq accesses
system.l2.demand_mshr_miss_rate::.cpu.inst     0.985731                       # mshr miss rate for demand accesses
system.l2.demand_mshr_miss_rate::.cpu.data     0.691968                       # mshr miss rate for demand accesses
system.l2.demand_mshr_miss_rate::total       0.747312                       # mshr miss rate for demand accesses
system.l2.overall_mshr_miss_rate::.cpu.inst     0.985731                       # mshr miss rate for overall accesses
system.l2.overall_mshr_miss_rate::.cpu.data     0.691968                       # mshr miss rate for overall accesses
system.l2.overall_mshr_miss_rate::total      0.747312                       # mshr miss rate for overall accesses
system.l2.ReadExReq_avg_mshr_miss_latency::.cpu.data 74021.598272                       # average ReadExReq mshr miss latency
system.l2.ReadExReq_avg_mshr_miss_latency::total 74021.598272                       # average ReadExReq mshr miss latency
system.l2.ReadCleanReq_avg_mshr_miss_latency::.cpu.inst 67616.405308                       # average ReadCleanReq mshr miss latency
system.l2.ReadCleanReq_avg_mshr_miss_latency::total 67616.405308                       # average ReadCleanReq mshr miss latency
system.l2.ReadSharedReq_avg_mshr_miss_latency::.cpu.data 69276.723593                       # average ReadSharedReq mshr miss latency
system.l2.ReadSharedReq_avg_mshr_miss_latency::total 69276.723593                       # average ReadSharedReq mshr miss latency
system.l2.demand_avg_mshr_miss_latency::.cpu.inst 67616.405308                       # average overall mshr miss latency
system.l2.demand_avg_mshr_miss_latency::.cpu.data 71029.317910                       # average overall mshr miss latency
system.l2.demand_avg_mshr_miss_latency::total 70181.205036                       # average overall mshr miss latency
system.l2.overall_avg_mshr_miss_latency::.cpu.inst 67616.405308                       # average overall mshr miss latency
system.l2.overall_avg_mshr_miss_latency::.cpu.data 71029.317910                       # average overall mshr miss latency
system.l2.overall_avg_mshr_miss_latency::total 70181.205036                       # average overall mshr miss latency
system.l2.replacements                              0                       # number of replacements
system.membus.snoop_filter.tot_requests          3336                       # Total number of requests made to the snoop filter.
system.membus.snoop_filter.hit_single_requests            0                       # Number of requests hitting in the snoop filter with a single holder of the requested data.
system.membus.snoop_filter.hit_multi_requests            0                       # Number of requests hitting in the snoop filter with multiple (>1) holders of the requested data.
system.membus.snoop_filter.tot_snoops               0                       # Total number of snoops made to the snoop filter.
system.membus.snoop_filter.hit_single_snoops            0                       # Number of snoops hitting in the snoop filter with a single holder of the requested data.
system.membus.snoop_filter.hit_multi_snoops            0                       # Number of snoops hitting in the snoop filter with multiple (>1) holders of the requested data.
system.membus.pwrStateResidencyTicks::UNDEFINED   1402359000                       # Cumulative time (in ticks) in various power states
system.membus.trans_dist::ReadResp               2410                       # Transaction distribution
system.membus.trans_dist::ReadExReq               926                       # Transaction distribution
system.membus.trans_dist::ReadExResp              926                       # Transaction distribution
system.membus.trans_dist::ReadSharedReq          2410                       # Transaction distribution
system.membus.pkt_count_system.l2.mem_side::system.mem_ctrls.port         6672                       # Packet count per connected master and slave (bytes)
system.membus.pkt_count_system.l2.mem_side::total         6672                       # Packet count per connected master and slave (bytes)
system.membus.pkt_count::total                   6672                       # Packet count per connected master and slave (bytes)
system.membus.pkt_size_system.l2.mem_side::system.mem_ctrls.port       213504                       # Cumulative packet size per connected master and slave (bytes)
system.membus.pkt_size_system.l2.mem_side::total       213504                       # Cumulative packet size per connected master and slave (bytes)
system.membus.pkt_size::total                  213504                       # Cumulative packet size per connected master and slave (bytes)
system.membus.snoops                                0                       # Total snoops (count)
system.membus.snoopTraffic                          0                       # Total snoop traffic (bytes)
system.membus.snoop_fanout::samples              3336                       # Request fanout histogram
system.membus.snoop_fanout::mean                    0                       # Request fanout histogram
system.membus.snoop_fanout::stdev                   0                       # Request fanout histogram
system.membus.snoop_fanout::underflows              0      0.00%      0.00% # Request fanout histogram
system.membus.snoop_fanout::0                    3336    100.00%    100.00% # Request fanout histogram
system.membus.snoop_fanout::1                       0      0.00%    100.00% # Request fanout histogram
system.membus.snoop_fanout::overflows               0      0.00%    100.00% # Request fanout histogram
system.membus.snoop_fanout::min_value               0                       # Request fanout histogram
system.membus.snoop_fanout::max_value               0                       # Request fanout histogram
system.membus.snoop_fanout::total                3336                       # Request fanout histogram
system.membus.reqLayer2.occupancy             1668000                       # Layer occupancy (ticks)
system.membus.reqLayer2.utilization               0.1                       # Layer utilization (%)
system.membus.respLayer1.occupancy            9042250                       # Layer occupancy (ticks)
system.membus.respLayer1.utilization              0.6                       # Layer utilization (%)
system.tol2bus.snoop_filter.tot_requests         7170                       # Total number of requests made to the snoop filter.
system.tol2bus.snoop_filter.hit_single_requests         2707                       # Number of requests hitting in the snoop filter with a single holder of the requested data.
system.tol2bus.snoop_filter.hit_multi_requests            5                       # Number of requests hitting in the snoop filter with multiple (>1) holders of the requested data.
system.tol2bus.snoop_filter.tot_snoops              0                       # Total number of snoops made to the snoop filter.
system.tol2bus.snoop_filter.hit_single_snoops            0                       # Number of snoops hitting in the snoop filter with a single holder of the requested data.
system.tol2bus.snoop_filter.hit_multi_snoops            0                       # Number of snoops hitting in the snoop filter with multiple (>1) holders of the requested data.
system.tol2bus.pwrStateResidencyTicks::UNDEFINED   1402359000                       # Cumulative time (in ticks) in various power states
system.tol2bus.trans_dist::ReadResp              3025                       # Transaction distribution
system.tol2bus.trans_dist::WritebackDirty         1630                       # Transaction distribution
system.tol2bus.trans_dist::WritebackClean          107                       # Transaction distribution
system.tol2bus.trans_dist::CleanEvict             969                       # Transaction distribution
system.tol2bus.trans_dist::ReadExReq             1439                       # Transaction distribution
system.tol2bus.trans_dist::ReadExResp            1439                       # Transaction distribution
system.tol2bus.trans_dist::ReadCleanReq           841                       # Transaction distribution
system.tol2bus.trans_dist::ReadSharedReq         2184                       # Transaction distribution
system.tol2bus.pkt_count_system.cpu.icache.mem_side::system.l2.cpu_side         1789                       # Packet count per connected master and slave (bytes)
system.tol2bus.pkt_count_system.cpu.dcache.mem_side::system.l2.cpu_side         9845                       # Packet count per connected master and slave (bytes)
system.tol2bus.pkt_count::total                 11634                       # Packet count per connected master and slave (bytes)
system.tol2bus.pkt_size_system.cpu.icache.mem_side::system.l2.cpu_side        60672                       # Cumulative packet size per connected master and slave (bytes)
system.tol2bus.pkt_size_system.cpu.dcache.mem_side::system.l2.cpu_side       336192                       # Cumulative packet size per connected master and slave (bytes)
system.tol2bus.pkt_size::total                 396864                       # Cumulative packet size per connected master and slave (bytes)
system.tol2bus.snoops                               0                       # Total snoops (count)
system.tol2bus.snoopTraffic                         0                       # Total snoop traffic (bytes)
system.tol2bus.snoop_fanout::samples             4464                       # Request fanout histogram
system.tol2bus.snoop_fanout::mean            0.001344                       # Request fanout histogram
system.tol2bus.snoop_fanout::stdev           0.036641                       # Request fanout histogram
system.tol2bus.snoop_fanout::underflows             0      0.00%      0.00% # Request fanout histogram
system.tol2bus.snoop_fanout::0                   4458     99.87%     99.87% # Request fanout histogram
system.tol2bus.snoop_fanout::1                      6      0.13%    100.00% # Request fanout histogram
system.tol2bus.snoop_fanout::2                      0      0.00%    100.00% # Request fanout histogram
system.tol2bus.snoop_fanout::3                      0      0.00%    100.00% # Request fanout histogram
system.tol2bus.snoop_fanout::4                      0      0.00%    100.00% # Request fanout histogram
system.tol2bus.snoop_fanout::overflows              0      0.00%    100.00% # Request fanout histogram
system.tol2bus.snoop_fanout::min_value              0                       # Request fanout histogram
system.tol2bus.snoop_fanout::max_value              1                       # Request fanout histogram
system.tol2bus.snoop_fanout::total               4464                       # Request fanout histogram
system.tol2bus.reqLayer0.occupancy            5322000                       # Layer occupancy (ticks)
system.tol2bus.reqLayer0.utilization              0.4                       # Layer utilization (%)
system.tol2bus.respLayer0.occupancy           1261500                       # Layer occupancy (ticks)
system.tol2bus.respLayer0.utilization             0.1                       # Layer utilization (%)
system.tol2bus.respLayer1.occupancy           5434500                       # Layer occupancy (ticks)
system.tol2bus.respLayer1.utilization             0.4                       # Layer utilization (%)

---------- End Simulation Statistics   ----------
