
---------- Begin Simulation Statistics ----------
sim_seconds                                  0.001387                       # Number of seconds simulated
sim_ticks                                  1386545000                       # Number of ticks simulated
final_tick                                 1386545000                       # Number of ticks from beginning of simulation (restored from checkpoints and never reset)
sim_freq                                 1000000000000                       # Frequency of simulated ticks
host_inst_rate                                  64137                       # Simulator instruction rate (inst/s)
host_op_rate                                   104596                       # Simulator op (including micro ops) rate (op/s)
host_tick_rate                               29711413                       # Simulator tick rate (ticks/s)
host_mem_usage                                 670484                       # Number of bytes of host memory used
host_seconds                                    46.67                       # Real time elapsed on the host
sim_insts                                     2993062                       # Number of instructions simulated
sim_ops                                       4881169                       # Number of ops (including micro ops) simulated
system.voltage_domain.voltage                       1                       # Voltage in Volts
system.clk_domain.clock                           500                       # Clock period in ticks
system.mem_ctrls.pwrStateResidencyTicks::UNDEFINED   1386545000                       # Cumulative time (in ticks) in various power states
system.mem_ctrls.bytes_read::.cpu.inst          52800                       # Number of bytes read from this memory
system.mem_ctrls.bytes_read::.cpu.data         160704                       # Number of bytes read from this memory
system.mem_ctrls.bytes_read::total             213504                       # Number of bytes read from this memory
system.mem_ctrls.bytes_inst_read::.cpu.inst        52800                       # Number of instructions bytes read from this memory
system.mem_ctrls.bytes_inst_read::total         52800                       # Number of instructions bytes read from this memory
system.mem_ctrls.num_reads::.cpu.inst             825                       # Number of read requests responded to by this memory
system.mem_ctrls.num_reads::.cpu.data            2511                       # Number of read requests responded to by this memory
system.mem_ctrls.num_reads::total                3336                       # Number of read requests responded to by this memory
system.mem_ctrls.bw_read::.cpu.inst          38080264                       # Total read bandwidth from this memory (bytes/s)
system.mem_ctrls.bw_read::.cpu.data         115902477                       # Total read bandwidth from this memory (bytes/s)
system.mem_ctrls.bw_read::total             153982741                       # Total read bandwidth from this memory (bytes/s)
system.mem_ctrls.bw_inst_read::.cpu.inst     38080264                       # Instruction read bandwidth from this memory (bytes/s)
system.mem_ctrls.bw_inst_read::total         38080264                       # Instruction read bandwidth from this memory (bytes/s)
system.mem_ctrls.bw_total::.cpu.inst         38080264                       # Total bandwidth to/from this memory (bytes/s)
system.mem_ctrls.bw_total::.cpu.data        115902477                       # Total bandwidth to/from this memory (bytes/s)
system.mem_ctrls.bw_total::total            153982741                       # Total bandwidth to/from this memory (bytes/s)
system.mem_ctrls.avgPriority_.cpu.inst::samples       825.00                       # Average QoS priority value for accepted requests
system.mem_ctrls.avgPriority_.cpu.data::samples      2511.00                       # Average QoS priority value for accepted requests
system.mem_ctrls.priorityMinLatency      0.000000018750                       # per QoS priority minimum request to response latency (s)
system.mem_ctrls.priorityMaxLatency      0.000001099750                       # per QoS priority maximum request to response latency (s)
system.mem_ctrls.numReadWriteTurnArounds            0                       # Number of turnarounds from READ to WRITE
system.mem_ctrls.numWriteReadTurnArounds            0                       # Number of turnarounds from WRITE to READ
system.mem_ctrls.numStayReadState                6842                       # Number of times bus staying in READ state
system.mem_ctrls.numStayWriteState                  0                       # Number of times bus staying in WRITE state
system.mem_ctrls.readReqs                        3336                       # Number of read requests accepted
system.mem_ctrls.writeReqs                          0                       # Number of write requests accepted
system.mem_ctrls.readBursts                      3336                       # Number of DRAM read bursts, including those serviced by the write queue
system.mem_ctrls.writeBursts                        0                       # Number of DRAM write bursts, including those merged in the write queue
system.mem_ctrls.bytesReadDRAM                 213504                       # Total number of bytes read from DRAM
system.mem_ctrls.bytesReadWrQ                       0                       # Total number of bytes read from write queue
system.mem_ctrls.bytesWritten                       0                       # Total number of bytes written to DRAM
system.mem_ctrls.bytesReadSys                  213504                       # Total read bytes from the system interface side
system.mem_ctrls.bytesWrittenSys                    0                       # Total written bytes from the system interface side
system.mem_ctrls.servicedByWrQ                      0                       # Number of DRAM read bursts serviced by the write queue
system.mem_ctrls.mergedWrBursts                     0                       # Number of DRAM write bursts merged with an existing one
system.mem_ctrls.neitherReadNorWriteReqs            0                       # Number of requests that are neither read nor write
system.mem_ctrls.perBankRdBursts::0               191                       # Per bank write bursts
system.mem_ctrls.perBankRdBursts::1               271                       # Per bank write bursts
system.mem_ctrls.perBankRdBursts::2               331                       # Per bank write bursts
system.mem_ctrls.perBankRdBursts::3               323                       # Per bank write bursts
system.mem_ctrls.perBankRdBursts::4               260                       # Per bank write bursts
system.mem_ctrls.perBankRdBursts::5               251                       # Per bank write bursts
system.mem_ctrls.perBankRdBursts::6               246                       # Per bank write bursts
system.mem_ctrls.perBankRdBursts::7               168                       # Per bank write bursts
system.mem_ctrls.perBankRdBursts::8               187                       # Per bank write bursts
system.mem_ctrls.perBankRdBursts::9                88                       # Per bank write bursts
system.mem_ctrls.perBankRdBursts::10              175                       # Per bank write bursts
system.mem_ctrls.perBankRdBursts::11              230                       # Per bank write bursts
system.mem_ctrls.perBankRdBursts::12              126                       # Per bank write bursts
system.mem_ctrls.perBankRdBursts::13              132                       # Per bank write bursts
system.mem_ctrls.perBankRdBursts::14              218                       # Per bank write bursts
system.mem_ctrls.perBankRdBursts::15              139                       # Per bank write bursts
system.mem_ctrls.perBankWrBursts::0                 0                       # Per bank write bursts
system.mem_ctrls.perBankWrBursts::1                 0                       # Per bank write bursts
system.mem_ctrls.perBankWrBursts::2                 0                       # Per bank write bursts
system.mem_ctrls.perBankWrBursts::3                 0                       # Per bank write bursts
system.mem_ctrls.perBankWrBursts::4                 0                       # Per bank write bursts
system.mem_ctrls.perBankWrBursts::5                 0                       # Per bank write bursts
system.mem_ctrls.perBankWrBursts::6                 0                       # Per bank write bursts
system.mem_ctrls.perBankWrBursts::7                 0                       # Per bank write bursts
system.mem_ctrls.perBankWrBursts::8                 0                       # Per bank write bursts
system.mem_ctrls.perBankWrBursts::9                 0                       # Per bank write bursts
system.mem_ctrls.perBankWrBursts::10                0                       # Per bank write bursts
system.mem_ctrls.perBankWrBursts::11                0                       # Per bank write bursts
system.mem_ctrls.perBankWrBursts::12                0                       # Per bank write bursts
system.mem_ctrls.perBankWrBursts::13                0                       # Per bank write bursts
system.mem_ctrls.perBankWrBursts::14                0                       # Per bank write bursts
system.mem_ctrls.perBankWrBursts::15                0                       # Per bank write bursts
system.mem_ctrls.numRdRetry                         0                       # Number of times read queue was full causing retry
system.mem_ctrls.numWrRetry                         0                       # Number of times write queue was full causing retry
system.mem_ctrls.totGap                    1386466500                       # Total gap between requests
system.mem_ctrls.readPktSize::0                     0                       # Read request sizes (log2)
system.mem_ctrls.readPktSize::1                     0                       # Read request sizes (log2)
system.mem_ctrls.readPktSize::2                     0                       # Read request sizes (log2)
system.mem_ctrls.readPktSize::3                     0                       # Read request sizes (log2)
system.mem_ctrls.readPktSize::4                     0                       # Read request sizes (log2)
system.mem_ctrls.readPktSize::5                     0                       # Read request sizes (log2)
system.mem_ctrls.readPktSize::6                  3336                       # Read request sizes (log2)
system.mem_ctrls.writePktSize::0                    0                       # Write request sizes (log2)
system.mem_ctrls.writePktSize::1                    0                       # Write request sizes (log2)
system.mem_ctrls.writePktSize::2                    0                       # Write request sizes (log2)
system.mem_ctrls.writePktSize::3                    0                       # Write request sizes (log2)
system.mem_ctrls.writePktSize::4                    0                       # Write request sizes (log2)
system.mem_ctrls.writePktSize::5                    0                       # Write request sizes (log2)
system.mem_ctrls.writePktSize::6                    0                       # Write request sizes (log2)
system.mem_ctrls.rdQLenPdf::0                    2329                       # What read queue length does an incoming req see
system.mem_ctrls.rdQLenPdf::1                     643                       # What read queue length does an incoming req see
system.mem_ctrls.rdQLenPdf::2                     267                       # What read queue length does an incoming req see
system.mem_ctrls.rdQLenPdf::3                      89                       # What read queue length does an incoming req see
system.mem_ctrls.rdQLenPdf::4                       7                       # What read queue length does an incoming req see
system.mem_ctrls.rdQLenPdf::5                       1                       # What read queue length does an incoming req see
system.mem_ctrls.rdQLenPdf::6                       0                       # What read queue length does an incoming req see
system.mem_ctrls.rdQLenPdf::7                       0                       # What read queue length does an incoming req see
system.mem_ctrls.rdQLenPdf::8                       0                       # What read queue length does an incoming req see
system.mem_ctrls.rdQLenPdf::9                       0                       # What read queue length does an incoming req see
system.mem_ctrls.rdQLenPdf::10                      0                       # What read queue length does an incoming req see
system.mem_ctrls.rdQLenPdf::11                      0                       # What read queue length does an incoming req see
system.mem_ctrls.rdQLenPdf::12                      0                       # What read queue length does an incoming req see
system.mem_ctrls.rdQLenPdf::13                      0                       # What read queue length does an incoming req see
system.mem_ctrls.rdQLenPdf::14                      0                       # What read queue length does an incoming req see
system.mem_ctrls.rdQLenPdf::15                      0                       # What read queue length does an incoming req see
system.mem_ctrls.rdQLenPdf::16                      0                       # What read queue length does an incoming req see
system.mem_ctrls.rdQLenPdf::17                      0                       # What read queue length does an incoming req see
system.mem_ctrls.rdQLenPdf::18                      0                       # What read queue length does an incoming req see
system.mem_ctrls.rdQLenPdf::19                      0                       # What read queue length does an incoming req see
system.mem_ctrls.rdQLenPdf::20                      0                       # What read queue length does an incoming req see
system.mem_ctrls.rdQLenPdf::21                      0                       # What read queue length does an incoming req see
system.mem_ctrls.rdQLenPdf::22                      0                       # What read queue length does an incoming req see
system.mem_ctrls.rdQLenPdf::23                      0                       # What read queue length does an incoming req see
system.mem_ctrls.rdQLenPdf::24                      0                       # What read queue length does an incoming req see
system.mem_ctrls.rdQLenPdf::25                      0                       # What read queue length does an incoming req see
system.mem_ctrls.rdQLenPdf::26                      0                       # What read queue length does an incoming req see
system.mem_ctrls.rdQLenPdf::27                      0                       # What read queue length does an incoming req see
system.mem_ctrls.rdQLenPdf::28                      0                       # What read queue length does an incoming req see
system.mem_ctrls.rdQLenPdf::29                      0                       # What read queue length does an incoming req see
system.mem_ctrls.rdQLenPdf::30                      0                       # What read queue length does an incoming req see
system.mem_ctrls.rdQLenPdf::31                      0                       # What read queue length does an incoming req see
system.mem_ctrls.wrQLenPdf::0                       0                       # What write queue length does an incoming req see
system.mem_ctrls.wrQLenPdf::1                       0                       # What write queue length does an incoming req see
system.mem_ctrls.wrQLenPdf::2                       0                       # What write queue length does an incoming req see
system.mem_ctrls.wrQLenPdf::3                       0                       # What write queue length does an incoming req see
system.mem_ctrls.wrQLenPdf::4                       0                       # What write queue length does an incoming req see
system.mem_ctrls.wrQLenPdf::5                       0                       # What write queue length does an incoming req see
system.mem_ctrls.wrQLenPdf::6                       0                       # What write queue length does an incoming req see
system.mem_ctrls.wrQLenPdf::7                       0                       # What write queue length does an incoming req see
system.mem_ctrls.wrQLenPdf::8                       0                       # What write queue length does an incoming req see
system.mem_ctrls.wrQLenPdf::9                       0                       # What write queue length does an incoming req see
system.mem_ctrls.wrQLenPdf::10                      0                       # What write queue length does an incoming req see
system.mem_ctrls.wrQLenPdf::11                      0                       # What write queue length does an incoming req see
system.mem_ctrls.wrQLenPdf::12                      0                       # What write queue length does an incoming req see
system.mem_ctrls.wrQLenPdf::13                      0                       # What write queue length does an incoming req see
system.mem_ctrls.wrQLenPdf::14                      0                       # What write queue length does an incoming req see
system.mem_ctrls.wrQLenPdf::15                      0                       # What write queue length does an incoming req see
system.mem_ctrls.wrQLenPdf::16                      0                       # What write queue length does an incoming req see
system.mem_ctrls.wrQLenPdf::17                      0                       # What write queue length does an incoming req see
system.mem_ctrls.wrQLenPdf::18                      0                       # What write queue length does an incoming req see
system.mem_ctrls.wrQLenPdf::19                      0                       # What write queue length does an incoming req see
system.mem_ctrls.wrQLenPdf::20                      0                       # What write queue length does an incoming req see
system.mem_ctrls.wrQLenPdf::21                      0                       # What write queue length does an incoming req see
system.mem_ctrls.wrQLenPdf::22                      0                       # What write queue length does an incoming req see
system.mem_ctrls.wrQLenPdf::23                      0                       # What write queue length does an incoming req see
system.mem_ctrls.wrQLenPdf::24                      0                       # What write queue length does an incoming req see
system.mem_ctrls.wrQLenPdf::25                      0                       # What write queue length does an incoming req see
system.mem_ctrls.wrQLenPdf::26                      0                       # What write queue length does an incoming req see
system.mem_ctrls.wrQLenPdf::27                      0                       # What write queue length does an incoming req see
system.mem_ctrls.wrQLenPdf::28                      0                       # What write queue length does an incoming req see
system.mem_ctrls.wrQLenPdf::29                      0                       # What write queue length does an incoming req see
system.mem_ctrls.wrQLenPdf::30                      0                       # What write queue length does an incoming req see
system.mem_ctrls.wrQLenPdf::31                      0                       # What write queue length does an incoming req see
system.mem_ctrls.wrQLenPdf::32                      0                       # What write queue length does an incoming req see
system.mem_ctrls.wrQLenPdf::33                      0                       # What write queue length does an incoming req see
system.mem_ctrls.wrQLenPdf::34                      0                       # What write queue length does an incoming req see
system.mem_ctrls.wrQLenPdf::35                      0                       # What write queue length does an incoming req see
system.mem_ctrls.wrQLenPdf::36                      0                       # What write queue length does an incoming req see
system.mem_ctrls.wrQLenPdf::37                      0                       # What write queue length does an incoming req see
system.mem_ctrls.wrQLenPdf::38                      0                       # What write queue length does an incoming req see
system.mem_ctrls.wrQLenPdf::39                      0                       # What write queue length does an incoming req see
system.mem_ctrls.wrQLenPdf::40                      0                       # What write queue length does an incoming req see
system.mem_ctrls.wrQLenPdf::41                      0                       # What write queue length does an incoming req see
system.mem_ctrls.wrQLenPdf::42                      0                       # What write queue length does an incoming req see
system.mem_ctrls.wrQLenPdf::43                      0                       # What write queue length does an incoming req see
system.mem_ctrls.wrQLenPdf::44                      0                       # What write queue length does an incoming req see
system.mem_ctrls.wrQLenPdf::45                      0                       # What write queue length does an incoming req see
system.mem_ctrls.wrQLenPdf::46                      0                       # What write queue length does an incoming req see
system.mem_ctrls.wrQLenPdf::47                      0                       # What write queue length does an incoming req see
system.mem_ctrls.wrQLenPdf::48                      0                       # What write queue length does an incoming req see
system.mem_ctrls.wrQLenPdf::49                      0                       # What write queue length does an incoming req see
system.mem_ctrls.wrQLenPdf::50                      0                       # What write queue length does an incoming req see
system.mem_ctrls.wrQLenPdf::51                      0                       # What write queue length does an incoming req see
system.mem_ctrls.wrQLenPdf::52                      0                       # What write queue length does an incoming req see
system.mem_ctrls.wrQLenPdf::53                      0                       # What write queue length does an incoming req see
system.mem_ctrls.wrQLenPdf::54                      0                       # What write queue length does an incoming req see
system.mem_ctrls.wrQLenPdf::55                      0                       # What write queue length does an incoming req see
system.mem_ctrls.wrQLenPdf::56                      0                       # What write queue length does an incoming req see
system.mem_ctrls.wrQLenPdf::57                      0                       # What write queue length does an incoming req see
system.mem_ctrls.wrQLenPdf::58                      0                       # What write queue length does an incoming req see
system.mem_ctrls.wrQLenPdf::59                      0                       # What write queue length does an incoming req see
system.mem_ctrls.wrQLenPdf::60                      0                       # What write queue length does an incoming req see
system.mem_ctrls.wrQLenPdf::61                      0                       # What write queue length does an incoming req see
system.mem_ctrls.wrQLenPdf::62                      0                       # What write queue length does an incoming req see
system.mem_ctrls.wrQLenPdf::63                      0                       # What write queue length does an incoming req see
system.mem_ctrls.bytesPerActivate::samples          611                       # Bytes accessed per row activation
system.mem_ctrls.bytesPerActivate::mean    347.129296                       # Bytes accessed per row activation
system.mem_ctrls.bytesPerActivate::gmean   245.717516                       # Bytes accessed per row activation
system.mem_ctrls.bytesPerActivate::stdev   296.780807                       # Bytes accessed per row activation
system.mem_ctrls.bytesPerActivate::0-127          104     17.02%     17.02% # Bytes accessed per row activation
system.mem_ctrls.bytesPerActivate::128-255          138     22.59%     39.61% # Bytes accessed per row activation
system.mem_ctrls.bytesPerActivate::256-383          206     33.72%     73.32% # Bytes accessed per row activation
system.mem_ctrls.bytesPerActivate::384-511           36      5.89%     79.21% # Bytes accessed per row activation
system.mem_ctrls.bytesPerActivate::512-639           24      3.93%     83.14% # Bytes accessed per row activation
system.mem_ctrls.bytesPerActivate::640-767           19      3.11%     86.25% # Bytes accessed per row activation
system.mem_ctrls.bytesPerActivate::768-895            5      0.82%     87.07% # Bytes accessed per row activation
system.mem_ctrls.bytesPerActivate::896-1023            8      1.31%     88.38% # Bytes accessed per row activation
system.mem_ctrls.bytesPerActivate::1024-1151           71     11.62%    100.00% # Bytes accessed per row activation
system.mem_ctrls.bytesPerActivate::total          611                       # Bytes accessed per row activation
system.mem_ctrls.masterReadBytes::.cpu.inst        52800                       # Per-master bytes read from memory
system.mem_ctrls.masterReadBytes::.cpu.data       160704                       # Per-master bytes read from memory
system.mem_ctrls.masterReadRate::.cpu.inst 38080264.253954969347                       # Per-master bytes read from memory rate (Bytes/sec)
system.mem_ctrls.masterReadRate::.cpu.data 115902477.020219311118                       # Per-master bytes read from memory rate (Bytes/sec)
system.mem_ctrls.masterReadAccesses::.cpu.inst          825                       # Per-master read serviced memory accesses
system.mem_ctrls.masterReadAccesses::.cpu.data         2511                       # Per-master read serviced memory accesses
system.mem_ctrls.masterReadTotalLat::.cpu.inst     26511750                       # Per-master read total memory access latency
system.mem_ctrls.masterReadTotalLat::.cpu.data     90289500                       # Per-master read total memory access latency
system.mem_ctrls.masterReadAvgLat::.cpu.inst     32135.45                       # Per-master read average memory access latency
system.mem_ctrls.masterReadAvgLat::.cpu.data     35957.59                       # Per-master read average memory access latency
system.mem_ctrls.totQLat                     54251250                       # Total ticks spent queuing
system.mem_ctrls.totMemAccLat               116801250                       # Total ticks spent from burst creation until serviced by the DRAM
system.mem_ctrls.totBusLat                   16680000                       # Total ticks spent in databus transfers
system.mem_ctrls.avgQLat                     16262.37                       # Average queueing delay per DRAM burst
system.mem_ctrls.avgBusLat                    5000.00                       # Average bus latency per DRAM burst
system.mem_ctrls.avgMemAccLat                35012.37                       # Average memory access latency per DRAM burst
system.mem_ctrls.avgRdBW                       153.98                       # Average DRAM read bandwidth in MiByte/s
system.mem_ctrls.avgWrBW                         0.00                       # Average achieved write bandwidth in MiByte/s
system.mem_ctrls.avgRdBWSys                    153.98                       # Average system read bandwidth in MiByte/s
system.mem_ctrls.avgWrBWSys                      0.00                       # Average system write bandwidth in MiByte/s
system.mem_ctrls.peakBW                      12800.00                       # Theoretical peak bandwidth in MiByte/s
system.mem_ctrls.busUtil                         1.20                       # Data bus utilization in percentage
system.mem_ctrls.busUtilRead                     1.20                       # Data bus utilization in percentage for reads
system.mem_ctrls.busUtilWrite                    0.00                       # Data bus utilization in percentage for writes
system.mem_ctrls.avgRdQLen                       1.05                       # Average read queue length when enqueuing
system.mem_ctrls.avgWrQLen                       0.00                       # Average write queue length when enqueuing
system.mem_ctrls.readRowHits                     2715                       # Number of row buffer hits during reads
system.mem_ctrls.writeRowHits                       0                       # Number of row buffer hits during writes
system.mem_ctrls.readRowHitRate                 81.38                       # Row buffer hit rate for reads
system.mem_ctrls.writeRowHitRate                  nan                       # Row buffer hit rate for writes
system.mem_ctrls.avgGap                     415607.46                       # Average gap between requests
system.mem_ctrls.pageHitRate                    81.38                       # Row buffer hit rate, read and write combined
system.mem_ctrls_0.actEnergy                  2520420                       # Energy for activate commands per rank (pJ)
system.mem_ctrls_0.preEnergy                  1324455                       # Energy for precharge commands per rank (pJ)
system.mem_ctrls_0.readEnergy                14572740                       # Energy for read commands per rank (pJ)
system.mem_ctrls_0.writeEnergy                      0                       # Energy for write commands per rank (pJ)
system.mem_ctrls_0.refreshEnergy         89737440.000000                       # Energy for refresh commands per rank (pJ)
system.mem_ctrls_0.actBackEnergy             39425760                       # Energy for active background per rank (pJ)
system.mem_ctrls_0.preBackEnergy              3696000                       # Energy for precharge background per rank (pJ)
system.mem_ctrls_0.actPowerDownEnergy       407791680                       # Energy for active power-down per rank (pJ)
system.mem_ctrls_0.prePowerDownEnergy        58559040                       # Energy for precharge power-down per rank (pJ)
system.mem_ctrls_0.selfRefreshEnergy         64006200                       # Energy for self refresh per rank (pJ)
system.mem_ctrls_0.totalEnergy              681719385                       # Total energy per rank (pJ)
system.mem_ctrls_0.averagePower            491.667696                       # Core power per rank (mW)
system.mem_ctrls_0.totalIdleTime           1290109500                       # Total Idle time Per DRAM Rank
system.mem_ctrls_0.memoryStateTime::IDLE      5797500                       # Time in different power states
system.mem_ctrls_0.memoryStateTime::REF      37960000                       # Time in different power states
system.mem_ctrls_0.memoryStateTime::SREF    243489500                       # Time in different power states
system.mem_ctrls_0.memoryStateTime::PRE_PDN    152482000                       # Time in different power states
system.mem_ctrls_0.memoryStateTime::ACT      52541000                       # Time in different power states
system.mem_ctrls_0.memoryStateTime::ACT_PDN    894275000                       # Time in different power states
system.mem_ctrls_1.actEnergy                  1913520                       # Energy for activate commands per rank (pJ)
system.mem_ctrls_1.preEnergy                   994290                       # Energy for precharge commands per rank (pJ)
system.mem_ctrls_1.readEnergy                 9246300                       # Energy for read commands per rank (pJ)
system.mem_ctrls_1.writeEnergy                      0                       # Energy for write commands per rank (pJ)
system.mem_ctrls_1.refreshEnergy         43024800.000000                       # Energy for refresh commands per rank (pJ)
system.mem_ctrls_1.actBackEnergy             23013750                       # Energy for active background per rank (pJ)
system.mem_ctrls_1.preBackEnergy              1595520                       # Energy for precharge background per rank (pJ)
system.mem_ctrls_1.actPowerDownEnergy       188652330                       # Energy for active power-down per rank (pJ)
system.mem_ctrls_1.prePowerDownEnergy        30730560                       # Energy for precharge power-down per rank (pJ)
system.mem_ctrls_1.selfRefreshEnergy        204477240                       # Energy for self refresh per rank (pJ)
system.mem_ctrls_1.totalEnergy              503648310                       # Total energy per rank (pJ)
system.mem_ctrls_1.averagePower            363.239787                       # Core power per rank (mW)
system.mem_ctrls_1.totalIdleTime           1331898250                       # Total Idle time Per DRAM Rank
system.mem_ctrls_1.memoryStateTime::IDLE      2093500                       # Time in different power states
system.mem_ctrls_1.memoryStateTime::REF      18200000                       # Time in different power states
system.mem_ctrls_1.memoryStateTime::SREF    838183000                       # Time in different power states
system.mem_ctrls_1.memoryStateTime::PRE_PDN     80039000                       # Time in different power states
system.mem_ctrls_1.memoryStateTime::ACT      34311000                       # Time in different power states
system.mem_ctrls_1.memoryStateTime::ACT_PDN    413718500                       # Time in different power states
system.pwrStateResidencyTicks::UNDEFINED   1386545000                       # Cumulative time (in ticks) in various power states
system.cpu.branchPred.lookups                 1373724                       # Number of BP lookups
system.cpu.branchPred.condPredicted           1373724                       # Number of conditional branches predicted
system.cpu.branchPred.condIncorrect            114673                       # Number of conditional branches incorrect
system.cpu.branchPred.BTBLookups               781228                       # Number of BTB lookups
system.cpu.branchPred.BTBHits                       0                       # Number of BTB hits
system.cpu.branchPred.BTBCorrect                    0                       # Number of correct BTB predictions (this stat may not work properly.
system.cpu.branchPred.BTBHitPct              0.000000                       # BTB Hit Percentage
system.cpu.branchPred.usedRAS                   18670                       # Number of times the RAS was used to get a target.
system.cpu.branchPred.RASInCorrect               3240                       # Number of incorrect RAS predictions.
system.cpu.branchPred.indirectLookups          781228                       # Number of indirect predictor lookups.
system.cpu.branchPred.indirectHits             410940                       # Number of indirect target hits.
system.cpu.branchPred.indirectMisses           370288                       # Number of indirect misses.
system.cpu.branchPredindirectMispredicted        41693                       # Number of mispredicted indirect branches.
system.cpu_voltage_domain.voltage                   1                       # Voltage in Volts
system.cpu_clk_domain.clock                       500                       # Clock period in ticks
system.cpu.dtb.walker.pwrStateResidencyTicks::UNDEFINED   1386545000                       # Cumulative time (in ticks) in various power states
system.cpu.dtb.rdAccesses                      563706                       # TLB accesses on read requests
system.cpu.dtb.wrAccesses                      396195                       # TLB accesses on write requests
system.cpu.dtb.rdMisses                           480                       # TLB misses on read requests
system.cpu.dtb.wrMisses                            94                       # TLB misses on write requests
system.cpu.apic_clk_domain.clock                 8000                       # Clock period in ticks
system.cpu.interrupts.pwrStateResidencyTicks::UNDEFINED   1386545000                       # Cumulative time (in ticks) in various power states
system.cpu.itb.walker.pwrStateResidencyTicks::UNDEFINED   1386545000                       # Cumulative time (in ticks) in various power states
system.cpu.itb.rdAccesses                           0                       # TLB accesses on read requests
system.cpu.itb.wrAccesses                      349328                       # TLB accesses on write requests
system.cpu.itb.rdMisses                             0                       # TLB misses on read requests
system.cpu.itb.wrMisses                           113                       # TLB misses on write requests
system.cpu.workload.numSyscalls                    27                       # Number of system calls
system.cpu.pwrStateResidencyTicks::ON      1386545000                       # Cumulative time (in ticks) in various power states
system.cpu.numCycles                          2773091                       # number of cpu cycles simulated
system.cpu.numWorkItemsStarted                      0                       # number of work items this cpu started
system.cpu.numWorkItemsCompleted                    0                       # number of work items this cpu completed
system.cpu.fetch.icacheStallCycles             425495                       # Number of cycles fetch is stalled on an Icache miss
system.cpu.fetch.Insts                        7803858                       # Number of instructions fetch has processed
system.cpu.fetch.Branches                     1373724                       # Number of branches that fetch encountered
system.cpu.fetch.predictedBranches             429610                       # Number of branches that fetch has predicted taken
system.cpu.fetch.Cycles                       2173245                       # Number of cycles fetch has run and was not squashing or blocked
system.cpu.fetch.SquashCycles                  229528                       # Number of cycles fetch has spent squashing
system.cpu.fetch.TlbCycles                        161                       # Number of cycles fetch has spent waiting for tlb
system.cpu.fetch.MiscStallCycles                   18                       # Number of cycles fetch has spent waiting on interrupts, or bad addresses, or out of MSHRs
system.cpu.fetch.PendingTrapStallCycles           338                       # Number of stall cycles due to pending traps
system.cpu.fetch.PendingQuiesceStallCycles           25                       # Number of stall cycles due to pending quiesce instructions
system.cpu.fetch.IcacheWaitRetryStallCycles           15                       # Number of stall cycles due to full MSHR
system.cpu.fetch.CacheLines                    349287                       # Number of cache lines fetched
system.cpu.fetch.IcacheSquashes                 18997                       # Number of outstanding Icache misses that were squashed
system.cpu.fetch.rateDist::samples            2714061                       # Number of instructions fetched each cycle (Total)
system.cpu.fetch.rateDist::mean              4.572441                       # Number of instructions fetched each cycle (Total)
system.cpu.fetch.rateDist::stdev             3.637467                       # Number of instructions fetched each cycle (Total)
system.cpu.fetch.rateDist::underflows               0      0.00%      0.00% # Number of instructions fetched each cycle (Total)
system.cpu.fetch.rateDist::0                   879567     32.41%     32.41% # Number of instructions fetched each cycle (Total)
system.cpu.fetch.rateDist::1                   112299      4.14%     36.55% # Number of instructions fetched each cycle (Total)
system.cpu.fetch.rateDist::2                    36109      1.33%     37.88% # Number of instructions fetched each cycle (Total)
system.cpu.fetch.rateDist::3                    77696      2.86%     40.74% # Number of instructions fetched each cycle (Total)
system.cpu.fetch.rateDist::4                   113738      4.19%     44.93% # Number of instructions fetched each cycle (Total)
system.cpu.fetch.rateDist::5                    54341      2.00%     46.93% # Number of instructions fetched each cycle (Total)
system.cpu.fetch.rateDist::6                    96194      3.54%     50.48% # Number of instructions fetched each cycle (Total)
system.cpu.fetch.rateDist::7                    64478      2.38%     52.85% # Number of instructions fetched each cycle (Total)
system.cpu.fetch.rateDist::8                  1279639     47.15%    100.00% # Number of instructions fetched each cycle (Total)
system.cpu.fetch.rateDist::overflows                0      0.00%    100.00% # Number of instructions fetched each cycle (Total)
system.cpu.fetch.rateDist::min_value                0                       # Number of instructions fetched each cycle (Total)
system.cpu.fetch.rateDist::max_value                8                       # Number of instructions fetched each cycle (Total)
system.cpu.fetch.rateDist::total              2714061                       # Number of instructions fetched each cycle (Total)
system.cpu.fetch.branchRate                  0.495376                       # Number of branch fetches per cycle
system.cpu.fetch.rate                        2.814137                       # Number of inst fetches per cycle
system.cpu.decode.IdleCycles                   419201                       # Number of cycles decode is idle
system.cpu.decode.BlockedCycles                680571                       # Number of cycles decode is blocked
system.cpu.decode.RunCycles                   1342793                       # Number of cycles decode is running
system.cpu.decode.UnblockCycles                156732                       # Number of cycles decode is unblocking
system.cpu.decode.SquashCycles                 114764                       # Number of cycles decode is squashing
system.cpu.decode.DecodedInsts               11235574                       # Number of instructions handled by decode
system.cpu.rename.SquashCycles                 114764                       # Number of cycles rename is squashing
system.cpu.rename.IdleCycles                   516767                       # Number of cycles rename is idle
system.cpu.rename.BlockCycles                  613522                       # Number of cycles rename is blocking
system.cpu.rename.serializeStallCycles           2860                       # count of cycles rename stalled for serializing inst
system.cpu.rename.RunCycles                   1358482                       # Number of cycles rename is running
system.cpu.rename.UnblockCycles                107666                       # Number of cycles rename is unblocking
system.cpu.rename.RenamedInsts               10556211                       # Number of instructions processed by rename
system.cpu.rename.ROBFullEvents                  3485                       # Number of times rename has blocked due to ROB full
system.cpu.rename.IQFullEvents                   9428                       # Number of times rename has blocked due to IQ full
system.cpu.rename.LQFullEvents                    564                       # Number of times rename has blocked due to LQ full
system.cpu.rename.SQFullEvents                  49473                       # Number of times rename has blocked due to SQ full
system.cpu.rename.RenamedOperands            13387650                       # Number of destination operands rename has renamed
system.cpu.rename.RenameLookups              25145768                       # Number of register rename lookups that rename has made
system.cpu.rename.int_rename_lookups         15402038                       # Number of integer rename lookups
system.cpu.rename.fp_rename_lookups             57958                       # Number of floating rename lookups
system.cpu.rename.CommittedMaps               6107409                       # Number of HB maps that are committed
system.cpu.rename.UndoneMaps                  7280241                       # Number of HB maps that are undone due to squashing
system.cpu.rename.serializingInsts                 87                       # count of serializing insts renamed
system.cpu.rename.tempSerializingInsts             59                       # count of temporary serializing insts renamed
system.cpu.rename.skidInsts                    422916                       # count of insts added to the skid buffer
system.cpu.memDep0.insertedLoads               702435                       # Number of loads inserted to the mem dependence unit.
system.cpu.memDep0.insertedStores              569241                       # Number of stores inserted to the mem dependence unit.
system.cpu.memDep0.conflictingLoads             79249                       # Number of conflicting loads.
system.cpu.memDep0.conflictingStores            55039                       # Number of conflicting stores.
system.cpu.iq.iqInstsAdded                    9172592                       # Number of instructions added to the IQ (excludes non-spec)
system.cpu.iq.iqNonSpecInstsAdded                  77                       # Number of non-speculative instructions added to the IQ
system.cpu.iq.iqInstsIssued                   7714806                       # Number of instructions issued
system.cpu.iq.iqSquashedInstsIssued            239020                       # Number of squashed instructions issued
system.cpu.iq.iqSquashedInstsExamined         4291499                       # Number of squashed instructions iterated over during squash; mainly for profiling
system.cpu.iq.iqSquashedOperandsExamined      5238134                       # Number of squashed operands that are examined and possibly removed from graph
system.cpu.iq.iqSquashedNonSpecRemoved             50                       # Number of squashed non-spec instructions that were removed
system.cpu.iq.issued_per_cycle::samples       2714061                       # Number of insts issued each cycle
system.cpu.iq.issued_per_cycle::mean         2.842532                       # Number of insts issued each cycle
system.cpu.iq.issued_per_cycle::stdev        2.883219                       # Number of insts issued each cycle
system.cpu.iq.issued_per_cycle::underflows            0      0.00%      0.00% # Number of insts issued each cycle
system.cpu.iq.issued_per_cycle::0             1188517     43.79%     43.79% # Number of insts issued each cycle
system.cpu.iq.issued_per_cycle::1               70820      2.61%     46.40% # Number of insts issued each cycle
system.cpu.iq.issued_per_cycle::2              119006      4.38%     50.79% # Number of insts issued each cycle
system.cpu.iq.issued_per_cycle::3              145307      5.35%     56.14% # Number of insts issued each cycle
system.cpu.iq.issued_per_cycle::4              246251      9.07%     65.21% # Number of insts issued each cycle
system.cpu.iq.issued_per_cycle::5              137861      5.08%     70.29% # Number of insts issued each cycle
system.cpu.iq.issued_per_cycle::6              483432     17.81%     88.10% # Number of insts issued each cycle
system.cpu.iq.issued_per_cycle::7              187784      6.92%     95.02% # Number of insts issued each cycle
system.cpu.iq.issued_per_cycle::8              135083      4.98%    100.00% # Number of insts issued each cycle
system.cpu.iq.issued_per_cycle::overflows            0      0.00%    100.00% # Number of insts issued each cycle
system.cpu.iq.issued_per_cycle::min_value            0                       # Number of insts issued each cycle
system.cpu.iq.issued_per_cycle::max_value            8                       # Number of insts issued each cycle
system.cpu.iq.issued_per_cycle::total         2714061                       # Number of insts issued each cycle
system.cpu.iq.fu_full::No_OpClass                   0      0.00%      0.00% # attempts to use FU when none available
system.cpu.iq.fu_full::IntAlu                  473654     99.70%     99.70% # attempts to use FU when none available
system.cpu.iq.fu_full::IntMult                      0      0.00%     99.70% # attempts to use FU when none available
system.cpu.iq.fu_full::IntDiv                       0      0.00%     99.70% # attempts to use FU when none available
system.cpu.iq.fu_full::FloatAdd                     0      0.00%     99.70% # attempts to use FU when none available
system.cpu.iq.fu_full::FloatCmp                     0      0.00%     99.70% # attempts to use FU when none available
system.cpu.iq.fu_full::FloatCvt                     0      0.00%     99.70% # attempts to use FU when none available
system.cpu.iq.fu_full::FloatMult                    0      0.00%     99.70% # attempts to use FU when none available
system.cpu.iq.fu_full::FloatMultAcc                 0      0.00%     99.70% # attempts to use FU when none available
system.cpu.iq.fu_full::FloatDiv                     0      0.00%     99.70% # attempts to use FU when none available
system.cpu.iq.fu_full::FloatMisc                    0      0.00%     99.70% # attempts to use FU when none available
system.cpu.iq.fu_full::FloatSqrt                    0      0.00%     99.70% # attempts to use FU when none available
system.cpu.iq.fu_full::SimdAdd                      1      0.00%     99.70% # attempts to use FU when none available
system.cpu.iq.fu_full::SimdAddAcc                   0      0.00%     99.70% # attempts to use FU when none available
system.cpu.iq.fu_full::SimdAlu                     15      0.00%     99.70% # attempts to use FU when none available
system.cpu.iq.fu_full::SimdCmp                      0      0.00%     99.70% # attempts to use FU when none available
system.cpu.iq.fu_full::SimdCvt                     12      0.00%     99.71% # attempts to use FU when none available
system.cpu.iq.fu_full::SimdMisc                     2      0.00%     99.71% # attempts to use FU when none available
system.cpu.iq.fu_full::SimdMult                     0      0.00%     99.71% # attempts to use FU when none available
system.cpu.iq.fu_full::SimdMultAcc                  0      0.00%     99.71% # attempts to use FU when none available
system.cpu.iq.fu_full::SimdShift                    1      0.00%     99.71% # attempts to use FU when none available
system.cpu.iq.fu_full::SimdShiftAcc                 0      0.00%     99.71% # attempts to use FU when none available
system.cpu.iq.fu_full::SimdSqrt                     0      0.00%     99.71% # attempts to use FU when none available
system.cpu.iq.fu_full::SimdFloatAdd                 0      0.00%     99.71% # attempts to use FU when none available
system.cpu.iq.fu_full::SimdFloatAlu                 0      0.00%     99.71% # attempts to use FU when none available
system.cpu.iq.fu_full::SimdFloatCmp                 0      0.00%     99.71% # attempts to use FU when none available
system.cpu.iq.fu_full::SimdFloatCvt                 0      0.00%     99.71% # attempts to use FU when none available
system.cpu.iq.fu_full::SimdFloatDiv                 0      0.00%     99.71% # attempts to use FU when none available
system.cpu.iq.fu_full::SimdFloatMisc                0      0.00%     99.71% # attempts to use FU when none available
system.cpu.iq.fu_full::SimdFloatMult                0      0.00%     99.71% # attempts to use FU when none available
system.cpu.iq.fu_full::SimdFloatMultAcc             0      0.00%     99.71% # attempts to use FU when none available
system.cpu.iq.fu_full::SimdFloatSqrt                0      0.00%     99.71% # attempts to use FU when none available
system.cpu.iq.fu_full::SimdAes                      0      0.00%     99.71% # attempts to use FU when none available
system.cpu.iq.fu_full::SimdAesMix                   0      0.00%     99.71% # attempts to use FU when none available
system.cpu.iq.fu_full::SimdSha1Hash                 0      0.00%     99.71% # attempts to use FU when none available
system.cpu.iq.fu_full::SimdSha1Hash2                0      0.00%     99.71% # attempts to use FU when none available
system.cpu.iq.fu_full::SimdSha256Hash               0      0.00%     99.71% # attempts to use FU when none available
system.cpu.iq.fu_full::SimdSha256Hash2              0      0.00%     99.71% # attempts to use FU when none available
system.cpu.iq.fu_full::SimdShaSigma2                0      0.00%     99.71% # attempts to use FU when none available
system.cpu.iq.fu_full::SimdShaSigma3                0      0.00%     99.71% # attempts to use FU when none available
system.cpu.iq.fu_full::MemRead                    705      0.15%     99.85% # attempts to use FU when none available
system.cpu.iq.fu_full::MemWrite                   427      0.09%     99.94% # attempts to use FU when none available
system.cpu.iq.fu_full::FloatMemRead               152      0.03%     99.98% # attempts to use FU when none available
system.cpu.iq.fu_full::FloatMemWrite              113      0.02%    100.00% # attempts to use FU when none available
system.cpu.iq.fu_full::IprAccess                    0      0.00%    100.00% # attempts to use FU when none available
system.cpu.iq.fu_full::InstPrefetch                 0      0.00%    100.00% # attempts to use FU when none available
system.cpu.iq.FU_type_0::No_OpClass             47616      0.62%      0.62% # Type of FU issued
system.cpu.iq.FU_type_0::IntAlu               6642872     86.11%     86.72% # Type of FU issued
system.cpu.iq.FU_type_0::IntMult                   24      0.00%     86.72% # Type of FU issued
system.cpu.iq.FU_type_0::IntDiv                  1156      0.01%     86.74% # Type of FU issued
system.cpu.iq.FU_type_0::FloatAdd                 144      0.00%     86.74% # Type of FU issued
system.cpu.iq.FU_type_0::FloatCmp                   0      0.00%     86.74% # Type of FU issued
system.cpu.iq.FU_type_0::FloatCvt                   0      0.00%     86.74% # Type of FU issued
system.cpu.iq.FU_type_0::FloatMult                  0      0.00%     86.74% # Type of FU issued
system.cpu.iq.FU_type_0::FloatMultAcc               0      0.00%     86.74% # Type of FU issued
system.cpu.iq.FU_type_0::FloatDiv                   0      0.00%     86.74% # Type of FU issued
system.cpu.iq.FU_type_0::FloatMisc                  0      0.00%     86.74% # Type of FU issued
system.cpu.iq.FU_type_0::FloatSqrt                  0      0.00%     86.74% # Type of FU issued
system.cpu.iq.FU_type_0::SimdAdd                  378      0.00%     86.74% # Type of FU issued
system.cpu.iq.FU_type_0::SimdAddAcc                 0      0.00%     86.74% # Type of FU issued
system.cpu.iq.FU_type_0::SimdAlu                  778      0.01%     86.75% # Type of FU issued
system.cpu.iq.FU_type_0::SimdCmp                    6      0.00%     86.75% # Type of FU issued
system.cpu.iq.FU_type_0::SimdCvt                  930      0.01%     86.77% # Type of FU issued
system.cpu.iq.FU_type_0::SimdMisc                 598      0.01%     86.77% # Type of FU issued
system.cpu.iq.FU_type_0::SimdMult                   0      0.00%     86.77% # Type of FU issued
system.cpu.iq.FU_type_0::SimdMultAcc                0      0.00%     86.77% # Type of FU issued
system.cpu.iq.FU_type_0::SimdShift                197      0.00%     86.78% # Type of FU issued
system.cpu.iq.FU_type_0::SimdShiftAcc               0      0.00%     86.78% # Type of FU issued
system.cpu.iq.FU_type_0::SimdSqrt                   0      0.00%     86.78% # Type of FU issued
system.cpu.iq.FU_type_0::SimdFloatAdd               0      0.00%     86.78% # Type of FU issued
system.cpu.iq.FU_type_0::SimdFloatAlu               0      0.00%     86.78% # Type of FU issued
system.cpu.iq.FU_type_0::SimdFloatCmp               0      0.00%     86.78% # Type of FU issued
system.cpu.iq.FU_type_0::SimdFloatCvt               0      0.00%     86.78% # Type of FU issued
system.cpu.iq.FU_type_0::SimdFloatDiv               0      0.00%     86.78% # Type of FU issued
system.cpu.iq.FU_type_0::SimdFloatMisc              0      0.00%     86.78% # Type of FU issued
system.cpu.iq.FU_type_0::SimdFloatMult              0      0.00%     86.78% # Type of FU issued
system.cpu.iq.FU_type_0::SimdFloatMultAcc            0      0.00%     86.78% # Type of FU issued
system.cpu.iq.FU_type_0::SimdFloatSqrt              0      0.00%     86.78% # Type of FU issued
system.cpu.iq.FU_type_0::SimdAes                    0      0.00%     86.78% # Type of FU issued
system.cpu.iq.FU_type_0::SimdAesMix                 0      0.00%     86.78% # Type of FU issued
system.cpu.iq.FU_type_0::SimdSha1Hash               0      0.00%     86.78% # Type of FU issued
system.cpu.iq.FU_type_0::SimdSha1Hash2              0      0.00%     86.78% # Type of FU issued
system.cpu.iq.FU_type_0::SimdSha256Hash             0      0.00%     86.78% # Type of FU issued
system.cpu.iq.FU_type_0::SimdSha256Hash2            0      0.00%     86.78% # Type of FU issued
system.cpu.iq.FU_type_0::SimdShaSigma2              0      0.00%     86.78% # Type of FU issued
system.cpu.iq.FU_type_0::SimdShaSigma3              0      0.00%     86.78% # Type of FU issued
system.cpu.iq.FU_type_0::MemRead               542678      7.03%     93.81% # Type of FU issued
system.cpu.iq.FU_type_0::MemWrite              390373      5.06%     98.87% # Type of FU issued
system.cpu.iq.FU_type_0::FloatMemRead           45223      0.59%     99.46% # Type of FU issued
system.cpu.iq.FU_type_0::FloatMemWrite          41833      0.54%    100.00% # Type of FU issued
system.cpu.iq.FU_type_0::IprAccess                  0      0.00%    100.00% # Type of FU issued
system.cpu.iq.FU_type_0::InstPrefetch               0      0.00%    100.00% # Type of FU issued
system.cpu.iq.FU_type_0::total                7714806                       # Type of FU issued
system.cpu.iq.rate                           2.782024                       # Inst issue rate
system.cpu.iq.fu_busy_cnt                      475082                       # FU busy when requested
system.cpu.iq.fu_busy_rate                   0.061581                       # FU busy rate (busy events/executed inst)
system.cpu.iq.int_inst_queue_reads           18677119                       # Number of integer instruction queue reads
system.cpu.iq.int_inst_queue_writes          13355393                       # Number of integer instruction queue writes
system.cpu.iq.int_inst_queue_wakeup_accesses      7359621                       # Number of integer instruction queue wakeup accesses
system.cpu.iq.fp_inst_queue_reads              180656                       # Number of floating instruction queue reads
system.cpu.iq.fp_inst_queue_writes             108874                       # Number of floating instruction queue writes
system.cpu.iq.fp_inst_queue_wakeup_accesses        86841                       # Number of floating instruction queue wakeup accesses
system.cpu.iq.vec_inst_queue_reads                  0                       # Number of vector instruction queue reads
system.cpu.iq.vec_inst_queue_writes                 0                       # Number of vector instruction queue writes
system.cpu.iq.vec_inst_queue_wakeup_accesses            0                       # Number of vector instruction queue wakeup accesses
system.cpu.iq.int_alu_accesses                8051831                       # Number of integer alu accesses
system.cpu.iq.fp_alu_accesses                   90441                       # Number of floating point alu accesses
system.cpu.iq.vec_alu_accesses                      0                       # Number of vector alu accesses
system.cpu.iew.lsq.thread0.forwLoads            29228                       # Number of loads that had data forwarded from stores
system.cpu.iew.lsq.thread0.invAddrLoads             0                       # Number of loads ignored due to an invalid address
system.cpu.iew.lsq.thread0.squashedLoads       283032                       # Number of loads squashed
system.cpu.iew.lsq.thread0.ignoredResponses          127                       # Number of memory responses ignored because the instruction is squashed
system.cpu.iew.lsq.thread0.memOrderViolation          101                       # Number of memory ordering violations
system.cpu.iew.lsq.thread0.squashedStores       260703                       # Number of stores squashed
system.cpu.iew.lsq.thread0.invAddrSwpfs             0                       # Number of software prefetches ignored due to an invalid address
system.cpu.iew.lsq.thread0.blockedLoads             0                       # Number of blocked loads due to partial load-store forwarding
system.cpu.iew.lsq.thread0.rescheduledLoads            6                       # Number of loads that were rescheduled
system.cpu.iew.lsq.thread0.cacheBlocked           233                       # Number of times an access to memory failed due to the cache being blocked
system.cpu.iew.iewIdleCycles                        0                       # Number of cycles IEW is idle
system.cpu.iew.iewSquashCycles                 114764                       # Number of cycles IEW is squashing
system.cpu.iew.iewBlockCycles                  544586                       # Number of cycles IEW is blocking
system.cpu.iew.iewUnblockCycles                  5730                       # Number of cycles IEW is unblocking
system.cpu.iew.iewDispatchedInsts             9172669                       # Number of instructions dispatched to IQ
system.cpu.iew.iewDispSquashedInsts              6868                       # Number of squashed instructions skipped by dispatch
system.cpu.iew.iewDispLoadInsts                702435                       # Number of dispatched load instructions
system.cpu.iew.iewDispStoreInsts               569241                       # Number of dispatched store instructions
system.cpu.iew.iewDispNonSpecInsts                 57                       # Number of dispatched non-speculative instructions
system.cpu.iew.iewIQFullEvents                    616                       # Number of times the IQ has become full, causing a stall
system.cpu.iew.iewLSQFullEvents                  4874                       # Number of times the LSQ has become full, causing a stall
system.cpu.iew.memOrderViolationEvents            101                       # Number of memory order violations
system.cpu.iew.predictedTakenIncorrect          45771                       # Number of branches that were predicted taken incorrectly
system.cpu.iew.predictedNotTakenIncorrect        84098                       # Number of branches that were predicted not taken incorrectly
system.cpu.iew.branchMispredicts               129869                       # Number of branch mispredicts detected at execute
system.cpu.iew.iewExecutedInsts               7531707                       # Number of executed instructions
system.cpu.iew.iewExecLoadInsts                563680                       # Number of load instructions executed
system.cpu.iew.iewExecSquashedInsts            183099                       # Number of squashed instructions skipped in execute
system.cpu.iew.exec_swp                             0                       # number of swp insts executed
system.cpu.iew.exec_nop                             0                       # number of nop insts executed
system.cpu.iew.exec_refs                       959873                       # number of memory reference insts executed
system.cpu.iew.exec_branches                   779250                       # Number of branches executed
system.cpu.iew.exec_stores                     396193                       # Number of stores executed
system.cpu.iew.exec_rate                     2.715997                       # Inst execution rate
system.cpu.iew.wb_sent                        7496568                       # cumulative count of insts sent to commit
system.cpu.iew.wb_count                       7446462                       # cumulative count of insts written-back
system.cpu.iew.wb_producers                   5435119                       # num instructions producing a value
system.cpu.iew.wb_consumers                   7970251                       # num instructions consuming a value
system.cpu.iew.wb_rate                       2.685257                       # insts written-back per cycle
system.cpu.iew.wb_fanout                     0.681926                       # average fanout of values written-back
system.cpu.commit.commitSquashedInsts         4291597                       # The number of squashed insts skipped by commit
system.cpu.commit.commitNonSpecStalls              27                       # The number of times commit has been forced to stall to communicate backwards
system.cpu.commit.branchMispredicts            114690                       # The number of times a branch was mispredicted
system.cpu.commit.committed_per_cycle::samples      2106762                       # Number of insts commited each cycle
system.cpu.commit.committed_per_cycle::mean     2.316906                       # Number of insts commited each cycle
system.cpu.commit.committed_per_cycle::stdev     2.936712                       # Number of insts commited each cycle
system.cpu.commit.committed_per_cycle::underflows            0      0.00%      0.00% # Number of insts commited each cycle
system.cpu.commit.committed_per_cycle::0       957257     45.44%     45.44% # Number of insts commited each cycle
system.cpu.commit.committed_per_cycle::1       256247     12.16%     57.60% # Number of insts commited each cycle
system.cpu.commit.committed_per_cycle::2       181258      8.60%     66.20% # Number of insts commited each cycle
system.cpu.commit.committed_per_cycle::3       147775      7.01%     73.22% # Number of insts commited each cycle
system.cpu.commit.committed_per_cycle::4        84254      4.00%     77.22% # Number of insts commited each cycle
system.cpu.commit.committed_per_cycle::5        57002      2.71%     79.92% # Number of insts commited each cycle
system.cpu.commit.committed_per_cycle::6        62284      2.96%     82.88% # Number of insts commited each cycle
system.cpu.commit.committed_per_cycle::7        62129      2.95%     85.83% # Number of insts commited each cycle
system.cpu.commit.committed_per_cycle::8       298556     14.17%    100.00% # Number of insts commited each cycle
system.cpu.commit.committed_per_cycle::overflows            0      0.00%    100.00% # Number of insts commited each cycle
system.cpu.commit.committed_per_cycle::min_value            0                       # Number of insts commited each cycle
system.cpu.commit.committed_per_cycle::max_value            8                       # Number of insts commited each cycle
system.cpu.commit.committed_per_cycle::total      2106762                       # Number of insts commited each cycle
system.cpu.commit.committedInsts              2993062                       # Number of instructions committed
system.cpu.commit.committedOps                4881169                       # Number of ops (including micro ops) committed
system.cpu.commit.swp_count                         0                       # Number of s/w prefetches committed
system.cpu.commit.refs                         727941                       # Number of memory references committed
system.cpu.commit.loads                        419403                       # Number of loads committed
system.cpu.commit.membars                           0                       # Number of memory barriers committed
system.cpu.commit.branches                     542927                       # Number of branches committed
system.cpu.commit.vec_insts                         0                       # Number of committed Vector instructions.
system.cpu.commit.fp_insts                      84924                       # Number of committed floating point instructions.
system.cpu.commit.int_insts                   4862924                       # Number of committed integer instructions.
system.cpu.commit.function_calls                 8778                       # Number of function calls committed.
system.cpu.commit.op_class_0::No_OpClass        16513      0.34%      0.34% # Class of committed instruction
system.cpu.commit.op_class_0::IntAlu          4133662     84.69%     85.02% # Class of committed instruction
system.cpu.commit.op_class_0::IntMult              11      0.00%     85.02% # Class of committed instruction
system.cpu.commit.op_class_0::IntDiv             1083      0.02%     85.05% # Class of committed instruction
system.cpu.commit.op_class_0::FloatAdd             18      0.00%     85.05% # Class of committed instruction
system.cpu.commit.op_class_0::FloatCmp              0      0.00%     85.05% # Class of committed instruction
system.cpu.commit.op_class_0::FloatCvt              0      0.00%     85.05% # Class of committed instruction
system.cpu.commit.op_class_0::FloatMult             0      0.00%     85.05% # Class of committed instruction
system.cpu.commit.op_class_0::FloatMultAcc            0      0.00%     85.05% # Class of committed instruction
system.cpu.commit.op_class_0::FloatDiv              0      0.00%     85.05% # Class of committed instruction
system.cpu.commit.op_class_0::FloatMisc             0      0.00%     85.05% # Class of committed instruction
system.cpu.commit.op_class_0::FloatSqrt             0      0.00%     85.05% # Class of committed instruction
system.cpu.commit.op_class_0::SimdAdd             284      0.01%     85.05% # Class of committed instruction
system.cpu.commit.op_class_0::SimdAddAcc            0      0.00%     85.05% # Class of committed instruction
system.cpu.commit.op_class_0::SimdAlu             403      0.01%     85.06% # Class of committed instruction
system.cpu.commit.op_class_0::SimdCmp               6      0.00%     85.06% # Class of committed instruction
system.cpu.commit.op_class_0::SimdCvt             664      0.01%     85.07% # Class of committed instruction
system.cpu.commit.op_class_0::SimdMisc            482      0.01%     85.08% # Class of committed instruction
system.cpu.commit.op_class_0::SimdMult              0      0.00%     85.08% # Class of committed instruction
system.cpu.commit.op_class_0::SimdMultAcc            0      0.00%     85.08% # Class of committed instruction
system.cpu.commit.op_class_0::SimdShift           102      0.00%     85.09% # Class of committed instruction
system.cpu.commit.op_class_0::SimdShiftAcc            0      0.00%     85.09% # Class of committed instruction
system.cpu.commit.op_class_0::SimdSqrt              0      0.00%     85.09% # Class of committed instruction
system.cpu.commit.op_class_0::SimdFloatAdd            0      0.00%     85.09% # Class of committed instruction
system.cpu.commit.op_class_0::SimdFloatAlu            0      0.00%     85.09% # Class of committed instruction
system.cpu.commit.op_class_0::SimdFloatCmp            0      0.00%     85.09% # Class of committed instruction
system.cpu.commit.op_class_0::SimdFloatCvt            0      0.00%     85.09% # Class of committed instruction
system.cpu.commit.op_class_0::SimdFloatDiv            0      0.00%     85.09% # Class of committed instruction
system.cpu.commit.op_class_0::SimdFloatMisc            0      0.00%     85.09% # Class of committed instruction
system.cpu.commit.op_class_0::SimdFloatMult            0      0.00%     85.09% # Class of committed instruction
system.cpu.commit.op_class_0::SimdFloatMultAcc            0      0.00%     85.09% # Class of committed instruction
system.cpu.commit.op_class_0::SimdFloatSqrt            0      0.00%     85.09% # Class of committed instruction
system.cpu.commit.op_class_0::SimdAes               0      0.00%     85.09% # Class of committed instruction
system.cpu.commit.op_class_0::SimdAesMix            0      0.00%     85.09% # Class of committed instruction
system.cpu.commit.op_class_0::SimdSha1Hash            0      0.00%     85.09% # Class of committed instruction
system.cpu.commit.op_class_0::SimdSha1Hash2            0      0.00%     85.09% # Class of committed instruction
system.cpu.commit.op_class_0::SimdSha256Hash            0      0.00%     85.09% # Class of committed instruction
system.cpu.commit.op_class_0::SimdSha256Hash2            0      0.00%     85.09% # Class of committed instruction
system.cpu.commit.op_class_0::SimdShaSigma2            0      0.00%     85.09% # Class of committed instruction
system.cpu.commit.op_class_0::SimdShaSigma3            0      0.00%     85.09% # Class of committed instruction
system.cpu.commit.op_class_0::MemRead          377781      7.74%     92.83% # Class of committed instruction
system.cpu.commit.op_class_0::MemWrite         267242      5.47%     98.30% # Class of committed instruction
system.cpu.commit.op_class_0::FloatMemRead        41622      0.85%     99.15% # Class of committed instruction
system.cpu.commit.op_class_0::FloatMemWrite        41296      0.85%    100.00% # Class of committed instruction
system.cpu.commit.op_class_0::IprAccess             0      0.00%    100.00% # Class of committed instruction
system.cpu.commit.op_class_0::InstPrefetch            0      0.00%    100.00% # Class of committed instruction
system.cpu.commit.op_class_0::total           4881169                       # Class of committed instruction
system.cpu.commit.bw_lim_events                298556                       # number cycles where commit BW limit reached
system.cpu.rob.rob_reads                     10980972                       # The number of ROB reads
system.cpu.rob.rob_writes                    18960650                       # The number of ROB writes
system.cpu.timesIdled                             507                       # Number of times that the entire CPU went into an idle state and unscheduled itself
system.cpu.idleCycles                           59030                       # Total number of cycles that the CPU has spent unscheduled due to idling
system.cpu.committedInsts                     2993062                       # Number of Instructions Simulated
system.cpu.committedOps                       4881169                       # Number of Ops (including micro ops) Simulated
system.cpu.cpi                               0.926506                       # CPI: Cycles Per Instruction
system.cpu.cpi_total                         0.926506                       # CPI: Total CPI of All Threads
system.cpu.ipc                               1.079323                       # IPC: Instructions Per Cycle
system.cpu.ipc_total                         1.079323                       # IPC: Total IPC of All Threads
system.cpu.int_regfile_reads                 10245929                       # number of integer regfile reads
system.cpu.int_regfile_writes                 6232606                       # number of integer regfile writes
system.cpu.fp_regfile_reads                     47987                       # number of floating regfile reads
system.cpu.fp_regfile_writes                    45818                       # number of floating regfile writes
system.cpu.cc_regfile_reads                   3571253                       # number of cc regfile reads
system.cpu.cc_regfile_writes                  3239743                       # number of cc regfile writes
system.cpu.misc_regfile_reads                 2656219                       # number of misc regfile reads
system.cpu.dcache.tags.pwrStateResidencyTicks::UNDEFINED   1386545000                       # Cumulative time (in ticks) in various power states
system.cpu.dcache.tags.tagsinuse           992.009911                       # Cycle average of tags in use
system.cpu.dcache.tags.total_refs              834901                       # Total number of references to valid blocks.
system.cpu.dcache.tags.sampled_refs              3619                       # Sample count of references to valid blocks.
system.cpu.dcache.tags.avg_refs            230.699364                       # Average number of references to valid blocks.
system.cpu.dcache.tags.warmup_cycle            169000                       # Cycle when the warmup percentage was hit.
system.cpu.dcache.tags.occ_blocks::.cpu.data   992.009911                       # Average occupied blocks per requestor
system.cpu.dcache.tags.occ_percent::.cpu.data     0.968760                       # Average percentage of cache occupancy
system.cpu.dcache.tags.occ_percent::total     0.968760                       # Average percentage of cache occupancy
system.cpu.dcache.tags.occ_task_id_blocks::1024         1024                       # Occupied blocks per task id
system.cpu.dcache.tags.age_task_id_blocks_1024::0          267                       # Occupied blocks per task id
system.cpu.dcache.tags.age_task_id_blocks_1024::1          286                       # Occupied blocks per task id
system.cpu.dcache.tags.age_task_id_blocks_1024::2          299                       # Occupied blocks per task id
system.cpu.dcache.tags.age_task_id_blocks_1024::3          172                       # Occupied blocks per task id
system.cpu.dcache.tags.occ_task_id_percent::1024            1                       # Percentage of cache occupancy per task id
system.cpu.dcache.tags.tag_accesses          13481571                       # Number of tag accesses
system.cpu.dcache.tags.data_accesses         13481571                       # Number of data accesses
system.cpu.dcache.pwrStateResidencyTicks::UNDEFINED   1386545000                       # Cumulative time (in ticks) in various power states
system.cpu.dcache.ReadReq_hits::.cpu.data       524182                       # number of ReadReq hits
system.cpu.dcache.ReadReq_hits::total          524182                       # number of ReadReq hits
system.cpu.dcache.WriteReq_hits::.cpu.data       307100                       # number of WriteReq hits
system.cpu.dcache.WriteReq_hits::total         307100                       # number of WriteReq hits
system.cpu.dcache.demand_hits::.cpu.data       831282                       # number of demand (read+write) hits
system.cpu.dcache.demand_hits::total           831282                       # number of demand (read+write) hits
system.cpu.dcache.overall_hits::.cpu.data       831282                       # number of overall hits
system.cpu.dcache.overall_hits::total          831282                       # number of overall hits
system.cpu.dcache.ReadReq_misses::.cpu.data         9652                       # number of ReadReq misses
system.cpu.dcache.ReadReq_misses::total          9652                       # number of ReadReq misses
system.cpu.dcache.WriteReq_misses::.cpu.data         1438                       # number of WriteReq misses
system.cpu.dcache.WriteReq_misses::total         1438                       # number of WriteReq misses
system.cpu.dcache.demand_misses::.cpu.data        11090                       # number of demand (read+write) misses
system.cpu.dcache.demand_misses::total          11090                       # number of demand (read+write) misses
system.cpu.dcache.overall_misses::.cpu.data        11090                       # number of overall misses
system.cpu.dcache.overall_misses::total         11090                       # number of overall misses
system.cpu.dcache.ReadReq_miss_latency::.cpu.data    476095500                       # number of ReadReq miss cycles
system.cpu.dcache.ReadReq_miss_latency::total    476095500                       # number of ReadReq miss cycles
system.cpu.dcache.WriteReq_miss_latency::.cpu.data     86513500                       # number of WriteReq miss cycles
system.cpu.dcache.WriteReq_miss_latency::total     86513500                       # number of WriteReq miss cycles
system.cpu.dcache.demand_miss_latency::.cpu.data    562609000                       # number of demand (read+write) miss cycles
system.cpu.dcache.demand_miss_latency::total    562609000                       # number of demand (read+write) miss cycles
system.cpu.dcache.overall_miss_latency::.cpu.data    562609000                       # number of overall miss cycles
system.cpu.dcache.overall_miss_latency::total    562609000                       # number of overall miss cycles
system.cpu.dcache.ReadReq_accesses::.cpu.data       533834                       # number of ReadReq accesses(hits+misses)
system.cpu.dcache.ReadReq_accesses::total       533834                       # number of ReadReq accesses(hits+misses)
[...]
system.l2.WritebackClean_accesses::total          103                       # number of WritebackClean accesses(hits+misses)
system.l2.ReadExReq_accesses::.cpu.data          1431                       # number of ReadExReq accesses(hits+misses)
system.l2.ReadExReq_accesses::total              1431                       # number of ReadExReq accesses(hits+misses)
system.l2.ReadCleanReq_accesses::.cpu.inst          837                       # number of ReadCleanReq accesses(hits+misses)
system.l2.ReadCleanReq_accesses::total            837                       # number of ReadCleanReq accesses(hits+misses)
system.l2.ReadSharedReq_accesses::.cpu.data         2188                       # number of ReadSharedReq accesses(hits+misses)
system.l2.ReadSharedReq_accesses::total          2188                       # number of ReadSharedReq accesses(hits+misses)
system.l2.demand_accesses::.cpu.inst              837                       # number of demand (read+write) accesses
system.l2.demand_accesses::.cpu.data             3619                       # number of demand (read+write) accesses
system.l2.demand_accesses::total                 4456                       # number of demand (read+write) accesses
system.l2.overall_accesses::.cpu.inst             837                       # number of overall (read+write) accesses
system.l2.overall_accesses::.cpu.data            3619                       # number of overall (read+write) accesses
system.l2.overall_accesses::total                4456                       # number of overall (read+write) accesses
system.l2.ReadExReq_miss_rate::.cpu.data     0.645702                       # miss rate for ReadExReq accesses
system.l2.ReadExReq_miss_rate::total         0.645702                       # miss rate for ReadExReq accesses
system.l2.ReadCleanReq_miss_rate::.cpu.inst     0.985663                       # miss rate for ReadCleanReq accesses
system.l2.ReadCleanReq_miss_rate::total      0.985663                       # miss rate for ReadCleanReq accesses
system.l2.ReadSharedReq_miss_rate::.cpu.data     0.725320                       # miss rate for ReadSharedReq accesses
system.l2.ReadSharedReq_miss_rate::total     0.725320                       # miss rate for ReadSharedReq accesses
system.l2.demand_miss_rate::.cpu.inst        0.985663                       # miss rate for demand accesses
system.l2.demand_miss_rate::.cpu.data        0.693838                       # miss rate for demand accesses
system.l2.demand_miss_rate::total            0.748654                       # miss rate for demand accesses
system.l2.overall_miss_rate::.cpu.inst       0.985663                       # miss rate for overall accesses
system.l2.overall_miss_rate::.cpu.data       0.693838                       # miss rate for overall accesses
system.l2.overall_miss_rate::total           0.748654                       # miss rate for overall accesses
system.l2.ReadExReq_avg_miss_latency::.cpu.data 83648.268398                       # average ReadExReq miss latency
system.l2.ReadExReq_avg_miss_latency::total 83648.268398                       # average ReadExReq miss latency
system.l2.ReadCleanReq_avg_miss_latency::.cpu.inst 77853.333333                       # average ReadCleanReq miss latency
system.l2.ReadCleanReq_avg_miss_latency::total 77853.333333                       # average ReadCleanReq miss latency
system.l2.ReadSharedReq_avg_miss_latency::.cpu.data 80512.917454                       # average ReadSharedReq miss latency
system.l2.ReadSharedReq_avg_miss_latency::total 80512.917454                       # average ReadSharedReq miss latency
system.l2.demand_avg_miss_latency::.cpu.inst 77853.333333                       # average overall miss latency
system.l2.demand_avg_miss_latency::.cpu.data 81666.666667                       # average overall miss latency
system.l2.demand_avg_miss_latency::total 80723.621103                       # average overall miss latency
system.l2.overall_avg_miss_latency::.cpu.inst 77853.333333                       # average overall miss latency
system.l2.overall_avg_miss_latency::.cpu.data 81666.666667                       # average overall miss latency
system.l2.overall_avg_miss_latency::total 80723.621103                       # average overall miss latency
system.l2.blocked_cycles::no_mshrs                  0                       # number of cycles access was blocked
system.l2.blocked_cycles::no_targets                0                       # number of cycles access was blocked
system.l2.blocked::no_mshrs                         0                       # number of cycles access was blocked
system.l2.blocked::no_targets                       0                       # number of cycles access was blocked
system.l2.avg_blocked_cycles::no_mshrs            nan                       # average number of cycles each access was blocked
system.l2.avg_blocked_cycles::no_targets          nan                       # average number of cycles each access was blocked
system.l2.ReadExReq_mshr_misses::.cpu.data          924                       # number of ReadExReq MSHR misses
system.l2.ReadExReq_mshr_misses::total            924                       # number of ReadExReq MSHR misses
system.l2.ReadCleanReq_mshr_misses::.cpu.inst          825                       # number of ReadCleanReq MSHR misses
system.l2.ReadCleanReq_mshr_misses::total          825                       # number of ReadCleanReq MSHR misses
system.l2.ReadSharedReq_mshr_misses::.cpu.data         1587                       # number of ReadSharedReq MSHR misses
system.l2.ReadSharedReq_mshr_misses::total         1587                       # number of ReadSharedReq MSHR misses
system.l2.demand_mshr_misses::.cpu.inst           825                       # number of demand (read+write) MSHR misses
system.l2.demand_mshr_misses::.cpu.data          2511                       # number of demand (read+write) MSHR misses
system.l2.demand_mshr_misses::total              3336                       # number of demand (read+write) MSHR misses
system.l2.overall_mshr_misses::.cpu.inst          825                       # number of overall MSHR misses
system.l2.overall_mshr_misses::.cpu.data         2511                       # number of overall MSHR misses
system.l2.overall_mshr_misses::total             3336                       # number of overall MSHR misses
system.l2.ReadExReq_mshr_miss_latency::.cpu.data     68051000                       # number of ReadExReq MSHR miss cycles
system.l2.ReadExReq_mshr_miss_latency::total     68051000                       # number of ReadExReq MSHR miss cycles
system.l2.ReadCleanReq_mshr_miss_latency::.cpu.inst     55979000                       # number of ReadCleanReq MSHR miss cycles
system.l2.ReadCleanReq_mshr_miss_latency::total     55979000                       # number of ReadCleanReq MSHR miss cycles
system.l2.ReadSharedReq_mshr_miss_latency::.cpu.data    111904000                       # number of ReadSharedReq MSHR miss cycles
system.l2.ReadSharedReq_mshr_miss_latency::total    111904000                       # number of ReadSharedReq MSHR miss cycles
system.l2.demand_mshr_miss_latency::.cpu.inst     55979000                       # number of demand (read+write) MSHR miss cycles
system.l2.demand_mshr_miss_latency::.cpu.data    179955000                       # number of demand (read+write) MSHR miss cycles
system.l2.demand_mshr_miss_latency::total    235934000                       # number of demand (read+write) MSHR miss cycles
system.l2.overall_mshr_miss_latency::.cpu.inst     55979000                       # number of overall MSHR miss cycles
system.l2.overall_mshr_miss_latency::.cpu.data    179955000                       # number of overall MSHR miss cycles
system.l2.overall_mshr_miss_latency::total    235934000                       # number of overall MSHR miss cycles
system.l2.ReadExReq_mshr_miss_rate::.cpu.data     0.645702                       # mshr miss rate for ReadExReq accesses
system.l2.ReadExReq_mshr_miss_rate::total     0.645702                       # mshr miss rate for ReadExReq accesses
system.l2.ReadCleanReq_mshr_miss_rate::.cpu.inst     0.985663                       # mshr miss rate for ReadCleanReq accesses
system.l2.ReadCleanReq_mshr_miss_rate::total     0.985663                       # mshr miss rate for ReadCleanReq accesses
system.l2.ReadSharedReq_mshr_miss_rate::.cpu.data     0.725320                       # mshr miss rate for ReadSharedReq accesses
system.l2.ReadSharedReq_mshr_miss_rate::total     0.725320                       # mshr miss rate for ReadSharedReq accesses
system.l2.demand_mshr_miss_rate::.cpu.inst     0.985663                       # mshr miss rate for demand accesses
system.l2.demand_mshr_miss_rate::.cpu.data     0.693838                       # mshr miss rate for demand accesses
system.l2.demand_mshr_miss_rate::total       0.748654                       # mshr miss rate for demand accesses
system.l2.overall_mshr_miss_rate::.cpu.inst     0.985663                       # mshr miss rate for overall accesses
system.l2.overall_mshr_miss_rate::.cpu.data     0.693838                       # mshr miss rate for overall accesses
system.l2.overall_mshr_miss_rate::total      0.748654                       # mshr miss rate for overall accesses
system.l2.ReadExReq_avg_mshr_miss_latency::.cpu.data 73648.268398                       # average ReadExReq mshr miss latency
system.l2.ReadExReq_avg_mshr_miss_latency::total 73648.268398                       # average ReadExReq mshr miss latency
system.l2.ReadCleanReq_avg_mshr_miss_latency::.cpu.inst 67853.333333                       # average ReadCleanReq mshr miss latency
system.l2.ReadCleanReq_avg_mshr_miss_latency::total 67853.333333                       # average ReadCleanReq mshr miss latency
system.l2.ReadSharedReq_avg_mshr_miss_latency::.cpu.data 70512.917454                       # average ReadSharedReq mshr miss latency
system.l2.ReadSharedReq_avg_mshr_miss_latency::total 70512.917454                       # average ReadSharedReq mshr miss latency
system.l2.demand_avg_mshr_miss_latency::.cpu.inst 67853.333333                       # average overall mshr miss latency
system.l2.demand_avg_mshr_miss_latency::.cpu.data 71666.666667                       # average overall mshr miss latency
system.l2.demand_avg_mshr_miss_latency::total 70723.621103                       # average overall mshr miss latency
system.l2.overall_avg_mshr_miss_latency::.cpu.inst 67853.333333                       # average overall mshr miss latency
system.l2.overall_avg_mshr_miss_latency::.cpu.data 71666.666667                       # average overall mshr miss latency
system.l2.overall_avg_mshr_miss_latency::total 70723.621103                       # average overall mshr miss latency
system.l2.replacements                              0                       # number of replacements
system.membus.snoop_filter.tot_requests          3336                       # Total number of requests made to the snoop filter.
system.membus.snoop_filter.hit_single_requests            0                       # Number of requests hitting in the snoop filter with a single holder of the requested data.
system.membus.snoop_filter.hit_multi_requests            0                       # Number of requests hitting in the snoop filter with multiple (>1) holders of the requested data.
system.membus.snoop_filter.tot_snoops               0                       # Total number of snoops made to the snoop filter.
system.membus.snoop_filter.hit_single_snoops            0                       # Number of snoops hitting in the snoop filter with a single holder of the requested data.
system.membus.snoop_filter.hit_multi_snoops            0                       # Number of snoops hitting in the snoop filter with multiple (>1) holders of the requested data.
system.membus.pwrStateResidencyTicks::UNDEFINED   1386545000                       # Cumulative time (in ticks) in various power states
system.membus.trans_dist::ReadResp               2412                       # Transaction distribution
system.membus.trans_dist::ReadExReq               924                       # Transaction distribution
system.membus.trans_dist::ReadExResp              924                       # Transaction distribution
system.membus.trans_dist::ReadSharedReq          2412                       # Transaction distribution
system.membus.pkt_count_system.l2.mem_side::system.mem_ctrls.port         6672                       # Packet count per connected master and slave (bytes)
system.membus.pkt_count_system.l2.mem_side::total         6672                       # Packet count per connected master and slave (bytes)
system.membus.pkt_count::total                   6672                       # Packet count per connected master and slave (bytes)
system.membus.pkt_size_system.l2.mem_side::system.mem_ctrls.port       213504                       # Cumulative packet size per connected master and slave (bytes)
system.membus.pkt_size_system.l2.mem_side::total       213504                       # Cumulative packet size per connected master and slave (bytes)
system.membus.pkt_size::total                  213504                       # Cumulative packet size per connected master and slave (bytes)
system.membus.snoops                                0                       # Total snoops (count)
system.membus.snoopTraffic                          0                       # Total snoop traffic (bytes)
system.membus.snoop_fanout::samples              3336                       # Request fanout histogram
system.membus.snoop_fanout::mean                    0                       # Request fanout histogram
system.membus.snoop_fanout::stdev                   0                       # Request fanout histogram
system.membus.snoop_fanout::underflows              0      0.00%      0.00% # Request fanout histogram
system.membus.snoop_fanout::0                    3336    100.00%    100.00% # Request fanout histogram
system.membus.snoop_fanout::1                       0      0.00%    100.00% # Request fanout histogram
system.membus.snoop_fanout::overflows               0      0.00%    100.00% # Request fanout histogram
system.membus.snoop_fanout::min_value               0                       # Request fanout histogram
system.membus.snoop_fanout::max_value               0                       # Request fanout histogram
system.membus.snoop_fanout::total                3336                       # Request fanout histogram
system.membus.reqLayer2.occupancy             1668000                       # Layer occupancy (ticks)
system.membus.reqLayer2.utilization               0.1                       # Layer utilization (%)
system.membus.respLayer1.occupancy            9044750                       # Layer occupancy (ticks)
system.membus.respLayer1.utilization              0.7                       # Layer utilization (%)
system.tol2bus.snoop_filter.tot_requests         7155                       # Total number of requests made to the snoop filter.
system.tol2bus.snoop_filter.hit_single_requests         2699                       # Number of requests hitting in the snoop filter with a single holder of the requested data.
system.tol2bus.snoop_filter.hit_multi_requests            6                       # Number of requests hitting in the snoop filter with multiple (>1) holders of the requested data.
system.tol2bus.snoop_filter.tot_snoops              0                       # Total number of snoops made to the snoop filter.
system.tol2bus.snoop_filter.hit_single_snoops            0                       # Number of snoops hitting in the snoop filter with a single holder of the requested data.
system.tol2bus.snoop_filter.hit_multi_snoops            0                       # Number of snoops hitting in the snoop filter with multiple (>1) holders of the requested data.
system.tol2bus.pwrStateResidencyTicks::UNDEFINED   1386545000                       # Cumulative time (in ticks) in various power states
system.tol2bus.trans_dist::ReadResp              3025                       # Transaction distribution
system.tol2bus.trans_dist::WritebackDirty         1626                       # Transaction distribution
system.tol2bus.trans_dist::WritebackClean          104                       # Transaction distribution
system.tol2bus.trans_dist::CleanEvict             969                       # Transaction distribution
system.tol2bus.trans_dist::ReadExReq             1431                       # Transaction distribution
system.tol2bus.trans_dist::ReadExResp            1431                       # Transaction distribution
system.tol2bus.trans_dist::ReadCleanReq           837                       # Transaction distribution
system.tol2bus.trans_dist::ReadSharedReq         2188                       # Transaction distribution
system.tol2bus.pkt_count_system.cpu.icache.mem_side::system.l2.cpu_side         1778                       # Packet count per connected master and slave (bytes)
system.tol2bus.pkt_count_system.cpu.dcache.mem_side::system.l2.cpu_side         9833                       # Packet count per connected master and slave (bytes)
system.tol2bus.pkt_count::total                 11611                       # Packet count per connected master and slave (bytes)
system.tol2bus.pkt_size_system.cpu.icache.mem_side::system.l2.cpu_side        60224                       # Cumulative packet size per connected master and slave (bytes)
system.tol2bus.pkt_size_system.cpu.dcache.mem_side::system.l2.cpu_side       335680                       # Cumulative packet size per connected master and slave (bytes)
system.tol2bus.pkt_size::total                 395904                       # Cumulative packet size per connected master and slave (bytes)
system.tol2bus.snoops                               0                       # Total snoops (count)
system.tol2bus.snoopTraffic                         0                       # Total snoop traffic (bytes)
system.tol2bus.snoop_fanout::samples             4456                       # Request fanout histogram
system.tol2bus.snoop_fanout::mean            0.001346                       # Request fanout histogram
system.tol2bus.snoop_fanout::stdev           0.036674                       # Request fanout histogram
system.tol2bus.snoop_fanout::underflows             0      0.00%      0.00% # Request fanout histogram
system.tol2bus.snoop_fanout::0                   4450     99.87%     99.87% # Request fanout histogram
system.tol2bus.snoop_fanout::1                      6      0.13%    100.00% # Request fanout histogram
system.tol2bus.snoop_fanout::2                      0      0.00%    100.00% # Request fanout histogram
system.tol2bus.snoop_fanout::3                      0      0.00%    100.00% # Request fanout histogram
system.tol2bus.snoop_fanout::4                      0      0.00%    100.00% # Request fanout histogram
system.tol2bus.snoop_fanout::overflows              0      0.00%    100.00% # Request fanout histogram
system.tol2bus.snoop_fanout::min_value              0                       # Request fanout histogram
system.tol2bus.snoop_fanout::max_value              1                       # Request fanout histogram
system.tol2bus.snoop_fanout::total               4456                       # Request fanout histogram
system.tol2bus.reqLayer0.occupancy            5307500                       # Layer occupancy (ticks)
system.tol2bus.reqLayer0.utilization              0.4                       # Layer utilization (%)
system.tol2bus.respLayer0.occupancy           1255500                       # Layer occupancy (ticks)
system.tol2bus.respLayer0.utilization             0.1                       # Layer utilization (%)
system.tol2bus.respLayer1.occupancy           5428500                       # Layer occupancy (ticks)
system.tol2bus.respLayer1.utilization             0.4                       # Layer utilization (%)

---------- End Simulation Statistics   ----------
