
---------- Begin Simulation Statistics ----------
sim_seconds                                  0.025508                       # Number of seconds simulated
sim_ticks                                 25507959000                       # Number of ticks simulated
final_tick                                25507959000                       # Number of ticks from beginning of simulation (restored from checkpoints and never reset)
sim_freq                                 1000000000000                       # Frequency of simulated ticks
host_inst_rate                                  73169                       # Simulator instruction rate (inst/s)
host_op_rate                                   120269                       # Simulator op (including micro ops) rate (op/s)
host_tick_rate                              150645446                       # Simulator tick rate (ticks/s)
host_mem_usage                                 677616                       # Number of bytes of host memory used
host_seconds                                   169.32                       # Real time elapsed on the host
sim_insts                                    12389360                       # Number of instructions simulated
sim_ops                                      20364513                       # Number of ops (including micro ops) simulated
system.voltage_domain.voltage                       1                       # Voltage in Volts
system.clk_domain.clock                          1000                       # Clock period in ticks
system.mem_ctrls.pwrStateResidencyTicks::UNDEFINED  25507959000                       # Cumulative time (in ticks) in various power states
system.mem_ctrls.bytes_read::.cpu.inst          69568                       # Number of bytes read from this memory
system.mem_ctrls.bytes_read::.cpu.data        1152896                       # Number of bytes read from this memory
system.mem_ctrls.bytes_read::total            1222464                       # Number of bytes read from this memory
system.mem_ctrls.bytes_inst_read::.cpu.inst        69568                       # Number of instructions bytes read from this memory
system.mem_ctrls.bytes_inst_read::total         69568                       # Number of instructions bytes read from this memory
system.mem_ctrls.num_reads::.cpu.inst            1087                       # Number of read requests responded to by this memory
system.mem_ctrls.num_reads::.cpu.data           18014                       # Number of read requests responded to by this memory
system.mem_ctrls.num_reads::total               19101                       # Number of read requests responded to by this memory
system.mem_ctrls.bw_read::.cpu.inst           2727306                       # Total read bandwidth from this memory (bytes/s)
system.mem_ctrls.bw_read::.cpu.data          45197501                       # Total read bandwidth from this memory (bytes/s)
system.mem_ctrls.bw_read::total              47924807                       # Total read bandwidth from this memory (bytes/s)
system.mem_ctrls.bw_inst_read::.cpu.inst      2727306                       # Instruction read bandwidth from this memory (bytes/s)
system.mem_ctrls.bw_inst_read::total          2727306                       # Instruction read bandwidth from this memory (bytes/s)
system.mem_ctrls.bw_total::.cpu.inst          2727306                       # Total bandwidth to/from this memory (bytes/s)
system.mem_ctrls.bw_total::.cpu.data         45197501                       # Total bandwidth to/from this memory (bytes/s)
system.mem_ctrls.bw_total::total             47924807                       # Total bandwidth to/from this memory (bytes/s)
system.mem_ctrls.avgPriority_.cpu.inst::samples      1087.00                       # Average QoS priority value for accepted requests
system.mem_ctrls.avgPriority_.cpu.data::samples     18014.00                       # Average QoS priority value for accepted requests
system.mem_ctrls.priorityMinLatency      0.000000018750                       # per QoS priority minimum request to response latency (s)
system.mem_ctrls.priorityMaxLatency      0.000001099750                       # per QoS priority maximum request to response latency (s)
system.mem_ctrls.numReadWriteTurnArounds            0                       # Number of turnarounds from READ to WRITE
system.mem_ctrls.numWriteReadTurnArounds            0                       # Number of turnarounds from WRITE to READ
system.mem_ctrls.numStayReadState               38631                       # Number of times bus staying in READ state
system.mem_ctrls.numStayWriteState                  0                       # Number of times bus staying in WRITE state
system.mem_ctrls.readReqs                       19101                       # Number of read requests accepted
system.mem_ctrls.writeReqs                          0                       # Number of write requests accepted
system.mem_ctrls.readBursts                     19101                       # Number of DRAM read bursts, including those serviced by the write queue
system.mem_ctrls.writeBursts                        0                       # Number of DRAM write bursts, including those merged in the write queue
system.mem_ctrls.bytesReadDRAM                1222464                       # Total number of bytes read from DRAM
system.mem_ctrls.bytesReadWrQ                       0                       # Total number of bytes read from write queue
system.mem_ctrls.bytesWritten                       0                       # Total number of bytes written to DRAM
system.mem_ctrls.bytesReadSys                 1222464                       # Total read bytes from the system interface side
system.mem_ctrls.bytesWrittenSys                    0                       # Total written bytes from the system interface side
system.mem_ctrls.servicedByWrQ                      0                       # Number of DRAM read bursts serviced by the write queue
system.mem_ctrls.mergedWrBursts                     0                       # Number of DRAM write bursts merged with an existing one
system.mem_ctrls.neitherReadNorWriteReqs            0                       # Number of requests that are neither read nor write
system.mem_ctrls.perBankRdBursts::0              1229                       # Per bank write bursts
system.mem_ctrls.perBankRdBursts::1              1185                       # Per bank write bursts
system.mem_ctrls.perBankRdBursts::2              1216                       # Per bank write bursts
system.mem_ctrls.perBankRdBursts::3              1259                       # Per bank write bursts
system.mem_ctrls.perBankRdBursts::4              1184                       # Per bank write bursts
system.mem_ctrls.perBankRdBursts::5              1068                       # Per bank write bursts
system.mem_ctrls.perBankRdBursts::6              1103                       # Per bank write bursts
system.mem_ctrls.perBankRdBursts::7              1090                       # Per bank write bursts
system.mem_ctrls.perBankRdBursts::8              1211                       # Per bank write bursts
system.mem_ctrls.perBankRdBursts::9              1247                       # Per bank write bursts
system.mem_ctrls.perBankRdBursts::10             1242                       # Per bank write bursts
system.mem_ctrls.perBankRdBursts::11             1191                       # Per bank write bursts
system.mem_ctrls.perBankRdBursts::12             1165                       # Per bank write bursts
system.mem_ctrls.perBankRdBursts::13             1256                       # Per bank write bursts
system.mem_ctrls.perBankRdBursts::14             1213                       # Per bank write bursts
system.mem_ctrls.perBankRdBursts::15             1242                       # Per bank write bursts
system.mem_ctrls.perBankWrBursts::0                 0                       # Per bank write bursts
system.mem_ctrls.perBankWrBursts::1                 0                       # Per bank write bursts
system.mem_ctrls.perBankWrBursts::2                 0                       # Per bank write bursts
system.mem_ctrls.perBankWrBursts::3                 0                       # Per bank write bursts
system.mem_ctrls.perBankWrBursts::4                 0                       # Per bank write bursts
system.mem_ctrls.perBankWrBursts::5                 0                       # Per bank write bursts
system.mem_ctrls.perBankWrBursts::6                 0                       # Per bank write bursts
system.mem_ctrls.perBankWrBursts::7                 0                       # Per bank write bursts
system.mem_ctrls.perBankWrBursts::8                 0                       # Per bank write bursts
system.mem_ctrls.perBankWrBursts::9                 0                       # Per bank write bursts
system.mem_ctrls.perBankWrBursts::10                0                       # Per bank write bursts
system.mem_ctrls.perBankWrBursts::11                0                       # Per bank write bursts
system.mem_ctrls.perBankWrBursts::12                0                       # Per bank write bursts
system.mem_ctrls.perBankWrBursts::13                0                       # Per bank write bursts
system.mem_ctrls.perBankWrBursts::14                0                       # Per bank write bursts
system.mem_ctrls.perBankWrBursts::15                0                       # Per bank write bursts
system.mem_ctrls.numRdRetry                         0                       # Number of times read queue was full causing retry
system.mem_ctrls.numWrRetry                         0                       # Number of times write queue was full causing retry
system.mem_ctrls.totGap                   25507847000                       # Total gap between requests
system.mem_ctrls.readPktSize::0                     0                       # Read request sizes (log2)
system.mem_ctrls.readPktSize::1                     0                       # Read request sizes (log2)
system.mem_ctrls.readPktSize::2                     0                       # Read request sizes (log2)
system.mem_ctrls.readPktSize::3                     0                       # Read request sizes (log2)
system.mem_ctrls.readPktSize::4                     0                       # Read request sizes (log2)
system.mem_ctrls.readPktSize::5                     0                       # Read request sizes (log2)
system.mem_ctrls.readPktSize::6                 19101                       # Read request sizes (log2)
system.mem_ctrls.writePktSize::0                    0                       # Write request sizes (log2)
system.mem_ctrls.writePktSize::1                    0                       # Write request sizes (log2)
system.mem_ctrls.writePktSize::2                    0                       # Write request sizes (log2)
system.mem_ctrls.writePktSize::3                    0                       # Write request sizes (log2)
system.mem_ctrls.writePktSize::4                    0                       # Write request sizes (log2)
system.mem_ctrls.writePktSize::5                    0                       # Write request sizes (log2)
system.mem_ctrls.writePktSize::6                    0                       # Write request sizes (log2)
system.mem_ctrls.rdQLenPdf::0                   18015                       # What read queue length does an incoming req see
system.mem_ctrls.rdQLenPdf::1                     791                       # What read queue length does an incoming req see
system.mem_ctrls.rdQLenPdf::2                     270                       # What read queue length does an incoming req see
system.mem_ctrls.rdQLenPdf::3                      23                       # What read queue length does an incoming req see
system.mem_ctrls.rdQLenPdf::4                       2                       # What read queue length does an incoming req see
system.mem_ctrls.rdQLenPdf::5                       0                       # What read queue length does an incoming req see
system.mem_ctrls.rdQLenPdf::6                       0                       # What read queue length does an incoming req see
system.mem_ctrls.rdQLenPdf::7                       0                       # What read queue length does an incoming req see
system.mem_ctrls.rdQLenPdf::8                       0                       # What read queue length does an incoming req see
system.mem_ctrls.rdQLenPdf::9                       0                       # What read queue length does an incoming req see
system.mem_ctrls.rdQLenPdf::10                      0                       # What read queue length does an incoming req see
system.mem_ctrls.rdQLenPdf::11                      0                       # What read queue length does an incoming req see
system.mem_ctrls.rdQLenPdf::12                      0                       # What read queue length does an incoming req see
system.mem_ctrls.rdQLenPdf::13                      0                       # What read queue length does an incoming req see
system.mem_ctrls.rdQLenPdf::14                      0                       # What read queue length does an incoming req see
system.mem_ctrls.rdQLenPdf::15                      0                       # What read queue length does an incoming req see
system.mem_ctrls.rdQLenPdf::16                      0                       # What read queue length does an incoming req see
system.mem_ctrls.rdQLenPdf::17                      0                       # What read queue length does an incoming req see
system.mem_ctrls.rdQLenPdf::18                      0                       # What read queue length does an incoming req see
system.mem_ctrls.rdQLenPdf::19                      0                       # What read queue length does an incoming req see
system.mem_ctrls.rdQLenPdf::20                      0                       # What read queue length does an incoming req see
system.mem_ctrls.rdQLenPdf::21                      0                       # What read queue length does an incoming req see
system.mem_ctrls.rdQLenPdf::22                      0                       # What read queue length does an incoming req see
system.mem_ctrls.rdQLenPdf::23                      0                       # What read queue length does an incoming req see
system.mem_ctrls.rdQLenPdf::24                      0                       # What read queue length does an incoming req see
system.mem_ctrls.rdQLenPdf::25                      0                       # What read queue length does an incoming req see
system.mem_ctrls.rdQLenPdf::26                      0                       # What read queue length does an incoming req see
system.mem_ctrls.rdQLenPdf::27                      0                       # What read queue length does an incoming req see
system.mem_ctrls.rdQLenPdf::28                      0                       # What read queue length does an incoming req see
system.mem_ctrls.rdQLenPdf::29                      0                       # What read queue length does an incoming req see
system.mem_ctrls.rdQLenPdf::30                      0                       # What read queue length does an incoming req see
system.mem_ctrls.rdQLenPdf::31                      0                       # What read queue length does an incoming req see
system.mem_ctrls.wrQLenPdf::0                       0                       # What write queue length does an incoming req see
system.mem_ctrls.wrQLenPdf::1                       0                       # What write queue length does an incoming req see
system.mem_ctrls.wrQLenPdf::2                       0                       # What write queue length does an incoming req see
system.mem_ctrls.wrQLenPdf::3                       0                       # What write queue length does an incoming req see
system.mem_ctrls.wrQLenPdf::4                       0                       # What write queue length does an incoming req see
system.mem_ctrls.wrQLenPdf::5                       0                       # What write queue length does an incoming req see
system.mem_ctrls.wrQLenPdf::6                       0                       # What write queue length does an incoming req see
system.mem_ctrls.wrQLenPdf::7                       0                       # What write queue length does an incoming req see
system.mem_ctrls.wrQLenPdf::8                       0                       # What write queue length does an incoming req see
system.mem_ctrls.wrQLenPdf::9                       0                       # What write queue length does an incoming req see
system.mem_ctrls.wrQLenPdf::10                      0                       # What write queue length does an incoming req see
system.mem_ctrls.wrQLenPdf::11                      0                       # What write queue length does an incoming req see
system.mem_ctrls.wrQLenPdf::12                      0                       # What write queue length does an incoming req see
system.mem_ctrls.wrQLenPdf::13                      0                       # What write queue length does an incoming req see
system.mem_ctrls.wrQLenPdf::14                      0                       # What write queue length does an incoming req see
system.mem_ctrls.wrQLenPdf::15                      0                       # What write queue length does an incoming req see
system.mem_ctrls.wrQLenPdf::16                      0                       # What write queue length does an incoming req see
system.mem_ctrls.wrQLenPdf::17                      0                       # What write queue length does an incoming req see
system.mem_ctrls.wrQLenPdf::18                      0                       # What write queue length does an incoming req see
system.mem_ctrls.wrQLenPdf::19                      0                       # What write queue length does an incoming req see
system.mem_ctrls.wrQLenPdf::20                      0                       # What write queue length does an incoming req see
system.mem_ctrls.wrQLenPdf::21                      0                       # What write queue length does an incoming req see
system.mem_ctrls.wrQLenPdf::22                      0                       # What write queue length does an incoming req see
system.mem_ctrls.wrQLenPdf::23                      0                       # What write queue length does an incoming req see
system.mem_ctrls.wrQLenPdf::24                      0                       # What write queue length does an incoming req see
system.mem_ctrls.wrQLenPdf::25                      0                       # What write queue length does an incoming req see
system.mem_ctrls.wrQLenPdf::26                      0                       # What write queue length does an incoming req see
system.mem_ctrls.wrQLenPdf::27                      0                       # What write queue length does an incoming req see
system.mem_ctrls.wrQLenPdf::28                      0                       # What write queue length does an incoming req see
system.mem_ctrls.wrQLenPdf::29                      0                       # What write queue length does an incoming req see
system.mem_ctrls.wrQLenPdf::30                      0                       # What write queue length does an incoming req see
system.mem_ctrls.wrQLenPdf::31                      0                       # What write queue length does an incoming req see
system.mem_ctrls.wrQLenPdf::32                      0                       # What write queue length does an incoming req see
system.mem_ctrls.wrQLenPdf::33                      0                       # What write queue length does an incoming req see
system.mem_ctrls.wrQLenPdf::34                      0                       # What write queue length does an incoming req see
system.mem_ctrls.wrQLenPdf::35                      0                       # What write queue length does an incoming req see
system.mem_ctrls.wrQLenPdf::36                      0                       # What write queue length does an incoming req see
system.mem_ctrls.wrQLenPdf::37                      0                       # What write queue length does an incoming req see
system.mem_ctrls.wrQLenPdf::38                      0                       # What write queue length does an incoming req see
system.mem_ctrls.wrQLenPdf::39                      0                       # What write queue length does an incoming req see
system.mem_ctrls.wrQLenPdf::40                      0                       # What write queue length does an incoming req see
system.mem_ctrls.wrQLenPdf::41                      0                       # What write queue length does an incoming req see
system.mem_ctrls.wrQLenPdf::42                      0                       # What write queue length does an incoming req see
system.mem_ctrls.wrQLenPdf::43                      0                       # What write queue length does an incoming req see
system.mem_ctrls.wrQLenPdf::44                      0                       # What write queue length does an incoming req see
system.mem_ctrls.wrQLenPdf::45                      0                       # What write queue length does an incoming req see
system.mem_ctrls.wrQLenPdf::46                      0                       # What write queue length does an incoming req see
system.mem_ctrls.wrQLenPdf::47                      0                       # What write queue length does an incoming req see
system.mem_ctrls.wrQLenPdf::48                      0                       # What write queue length does an incoming req see
system.mem_ctrls.wrQLenPdf::49                      0                       # What write queue length does an incoming req see
system.mem_ctrls.wrQLenPdf::50                      0                       # What write queue length does an incoming req see
system.mem_ctrls.wrQLenPdf::51                      0                       # What write queue length does an incoming req see
system.mem_ctrls.wrQLenPdf::52                      0                       # What write queue length does an incoming req see
system.mem_ctrls.wrQLenPdf::53                      0                       # What write queue length does an incoming req see
system.mem_ctrls.wrQLenPdf::54                      0                       # What write queue length does an incoming req see
system.mem_ctrls.wrQLenPdf::55                      0                       # What write queue length does an incoming req see
system.mem_ctrls.wrQLenPdf::56                      0                       # What write queue length does an incoming req see
system.mem_ctrls.wrQLenPdf::57                      0                       # What write queue length does an incoming req see
system.mem_ctrls.wrQLenPdf::58                      0                       # What write queue length does an incoming req see
system.mem_ctrls.wrQLenPdf::59                      0                       # What write queue length does an incoming req see
system.mem_ctrls.wrQLenPdf::60                      0                       # What write queue length does an incoming req see
system.mem_ctrls.wrQLenPdf::61                      0                       # What write queue length does an incoming req see
system.mem_ctrls.wrQLenPdf::62                      0                       # What write queue length does an incoming req see
system.mem_ctrls.wrQLenPdf::63                      0                       # What write queue length does an incoming req see
system.mem_ctrls.bytesPerActivate::samples         1709                       # Bytes accessed per row activation
system.mem_ctrls.bytesPerActivate::mean    714.410767                       # Bytes accessed per row activation
system.mem_ctrls.bytesPerActivate::gmean   523.548096                       # Bytes accessed per row activation
system.mem_ctrls.bytesPerActivate::stdev   376.987582                       # Bytes accessed per row activation
system.mem_ctrls.bytesPerActivate::0-127          213     12.46%     12.46% # Bytes accessed per row activation
system.mem_ctrls.bytesPerActivate::128-255          125      7.31%     19.78% # Bytes accessed per row activation
system.mem_ctrls.bytesPerActivate::256-383          106      6.20%     25.98% # Bytes accessed per row activation
system.mem_ctrls.bytesPerActivate::384-511           61      3.57%     29.55% # Bytes accessed per row activation
system.mem_ctrls.bytesPerActivate::512-639           65      3.80%     33.35% # Bytes accessed per row activation
system.mem_ctrls.bytesPerActivate::640-767           68      3.98%     37.33% # Bytes accessed per row activation
system.mem_ctrls.bytesPerActivate::768-895           30      1.76%     39.09% # Bytes accessed per row activation
system.mem_ctrls.bytesPerActivate::896-1023          262     15.33%     54.42% # Bytes accessed per row activation
system.mem_ctrls.bytesPerActivate::1024-1151          779     45.58%    100.00% # Bytes accessed per row activation
system.mem_ctrls.bytesPerActivate::total         1709                       # Bytes accessed per row activation
system.mem_ctrls.masterReadBytes::.cpu.inst        69568                       # Per-master bytes read from memory
system.mem_ctrls.masterReadBytes::.cpu.data      1152896                       # Per-master bytes read from memory
system.mem_ctrls.masterReadRate::.cpu.inst 2727305.622531383298                       # Per-master bytes read from memory rate (Bytes/sec)
system.mem_ctrls.masterReadRate::.cpu.data 45197500.905501693487                       # Per-master bytes read from memory rate (Bytes/sec)
system.mem_ctrls.masterReadAccesses::.cpu.inst         1087                       # Per-master read serviced memory accesses
system.mem_ctrls.masterReadAccesses::.cpu.data        18014                       # Per-master read serviced memory accesses
system.mem_ctrls.masterReadTotalLat::.cpu.inst     36114500                       # Per-master read total memory access latency
system.mem_ctrls.masterReadTotalLat::.cpu.data    570029250                       # Per-master read total memory access latency
system.mem_ctrls.masterReadAvgLat::.cpu.inst     33224.01                       # Per-master read average memory access latency
system.mem_ctrls.masterReadAvgLat::.cpu.data     31643.68                       # Per-master read average memory access latency
system.mem_ctrls.totQLat                    248000000                       # Total ticks spent queuing
system.mem_ctrls.totMemAccLat               606143750                       # Total ticks spent from burst creation until serviced by the DRAM
system.mem_ctrls.totBusLat                   95505000                       # Total ticks spent in databus transfers
system.mem_ctrls.avgQLat                     12983.61                       # Average queueing delay per DRAM burst
system.mem_ctrls.avgBusLat                    5000.00                       # Average bus latency per DRAM burst
system.mem_ctrls.avgMemAccLat                31733.61                       # Average memory access latency per DRAM burst
system.mem_ctrls.avgRdBW                        47.92                       # Average DRAM read bandwidth in MiByte/s
system.mem_ctrls.avgWrBW                         0.00                       # Average achieved write bandwidth in MiByte/s
system.mem_ctrls.avgRdBWSys                     47.92                       # Average system read bandwidth in MiByte/s
system.mem_ctrls.avgWrBWSys                      0.00                       # Average system write bandwidth in MiByte/s
system.mem_ctrls.peakBW                      12800.00                       # Theoretical peak bandwidth in MiByte/s
system.mem_ctrls.busUtil                         0.37                       # Data bus utilization in percentage
system.mem_ctrls.busUtilRead                     0.37                       # Data bus utilization in percentage for reads
system.mem_ctrls.busUtilWrite                    0.00                       # Data bus utilization in percentage for writes
system.mem_ctrls.avgRdQLen                       1.09                       # Average read queue length when enqueuing
system.mem_ctrls.avgWrQLen                       0.00                       # Average write queue length when enqueuing
system.mem_ctrls.readRowHits                    17382                       # Number of row buffer hits during reads
system.mem_ctrls.writeRowHits                       0                       # Number of row buffer hits during writes
system.mem_ctrls.readRowHitRate                 91.00                       # Row buffer hit rate for reads
system.mem_ctrls.writeRowHitRate                  nan                       # Row buffer hit rate for writes
system.mem_ctrls.avgGap                    1335419.45                       # Average gap between requests
system.mem_ctrls.pageHitRate                    91.00                       # Row buffer hit rate, read and write combined
system.mem_ctrls_0.actEnergy                  6226080                       # Energy for activate commands per rank (pJ)
system.mem_ctrls_0.preEnergy                  3282675                       # Energy for precharge commands per rank (pJ)
system.mem_ctrls_0.readEnergy                66644760                       # Energy for read commands per rank (pJ)
system.mem_ctrls_0.writeEnergy                      0                       # Energy for write commands per rank (pJ)
system.mem_ctrls_0.refreshEnergy         135835440.000000                       # Energy for refresh commands per rank (pJ)
system.mem_ctrls_0.actBackEnergy            134253240                       # Energy for active background per rank (pJ)
system.mem_ctrls_0.preBackEnergy              6453120                       # Energy for precharge background per rank (pJ)
system.mem_ctrls_0.actPowerDownEnergy       584468310                       # Energy for active power-down per rank (pJ)
system.mem_ctrls_0.prePowerDownEnergy        52076160                       # Energy for precharge power-down per rank (pJ)
system.mem_ctrls_0.selfRefreshEnergy       5713681980                       # Energy for self refresh per rank (pJ)
system.mem_ctrls_0.totalEnergy             6702921765                       # Total energy per rank (pJ)
system.mem_ctrls_0.averagePower            262.777660                       # Core power per rank (mW)
system.mem_ctrls_0.totalIdleTime          25196650000                       # Total Idle time Per DRAM Rank
system.mem_ctrls_0.memoryStateTime::IDLE      6479000                       # Time in different power states
system.mem_ctrls_0.memoryStateTime::REF      57460000                       # Time in different power states
system.mem_ctrls_0.memoryStateTime::SREF  23779394250                       # Time in different power states
system.mem_ctrls_0.memoryStateTime::PRE_PDN    135602250                       # Time in different power states
system.mem_ctrls_0.memoryStateTime::ACT     247305750                       # Time in different power states
system.mem_ctrls_0.memoryStateTime::ACT_PDN   1281717750                       # Time in different power states
system.mem_ctrls_1.actEnergy                  6047580                       # Energy for activate commands per rank (pJ)
system.mem_ctrls_1.preEnergy                  3202980                       # Energy for precharge commands per rank (pJ)
system.mem_ctrls_1.readEnergy                69736380                       # Energy for read commands per rank (pJ)
system.mem_ctrls_1.writeEnergy                      0                       # Energy for write commands per rank (pJ)
system.mem_ctrls_1.refreshEnergy         145669680.000000                       # Energy for refresh commands per rank (pJ)
system.mem_ctrls_1.actBackEnergy            140551740                       # Energy for active background per rank (pJ)
system.mem_ctrls_1.preBackEnergy              7550400                       # Energy for precharge background per rank (pJ)
system.mem_ctrls_1.actPowerDownEnergy       632417850                       # Energy for active power-down per rank (pJ)
system.mem_ctrls_1.prePowerDownEnergy        52169760                       # Energy for precharge power-down per rank (pJ)
system.mem_ctrls_1.selfRefreshEnergy       5682177120                       # Energy for self refresh per rank (pJ)
system.mem_ctrls_1.totalEnergy             6739523490                       # Total energy per rank (pJ)
system.mem_ctrls_1.averagePower            264.212573                       # Core power per rank (mW)
system.mem_ctrls_1.totalIdleTime          25179900000                       # Total Idle time Per DRAM Rank
system.mem_ctrls_1.memoryStateTime::IDLE      8750000                       # Time in different power states
system.mem_ctrls_1.memoryStateTime::REF      61620000                       # Time in different power states
system.mem_ctrls_1.memoryStateTime::SREF  23657330250                       # Time in different power states
system.mem_ctrls_1.memoryStateTime::PRE_PDN    135857000                       # Time in different power states
system.mem_ctrls_1.memoryStateTime::ACT     257481750                       # Time in different power states
system.mem_ctrls_1.memoryStateTime::ACT_PDN   1386920000                       # Time in different power states
system.pwrStateResidencyTicks::UNDEFINED  25507959000                       # Cumulative time (in ticks) in various power states
system.cpu.branchPred.lookups                 2356622                       # Number of BP lookups
system.cpu.branchPred.condPredicted           2356622                       # Number of conditional branches predicted
system.cpu.branchPred.condIncorrect              8364                       # Number of conditional branches incorrect
system.cpu.branchPred.BTBLookups              2338186                       # Number of BTB lookups
system.cpu.branchPred.BTBHits                       0                       # Number of BTB hits
system.cpu.branchPred.BTBCorrect                    0                       # Number of correct BTB predictions (this stat may not work properly.
system.cpu.branchPred.BTBHitPct              0.000000                       # BTB Hit Percentage
system.cpu.branchPred.usedRAS                    2116                       # Number of times the RAS was used to get a target.
system.cpu.branchPred.RASInCorrect                430                       # Number of incorrect RAS predictions.
system.cpu.branchPred.indirectLookups         2338186                       # Number of indirect predictor lookups.
system.cpu.branchPred.indirectHits            2294408                       # Number of indirect target hits.
system.cpu.branchPred.indirectMisses            43778                       # Number of indirect misses.
system.cpu.branchPredindirectMispredicted         4654                       # Number of mispredicted indirect branches.
system.cpu_voltage_domain.voltage                   1                       # Voltage in Volts
system.cpu_clk_domain.clock                      1000                       # Clock period in ticks
system.cpu.dtb.walker.pwrStateResidencyTicks::UNDEFINED  25507959000                       # Cumulative time (in ticks) in various power states
system.cpu.dtb.rdAccesses                      193074                       # TLB accesses on read requests
system.cpu.dtb.wrAccesses                     2212666                       # TLB accesses on write requests
system.cpu.dtb.rdMisses                          2294                       # TLB misses on read requests
system.cpu.dtb.wrMisses                         41082                       # TLB misses on write requests
system.cpu.apic_clk_domain.clock                16000                       # Clock period in ticks
system.cpu.interrupts.pwrStateResidencyTicks::UNDEFINED  25507959000                       # Cumulative time (in ticks) in various power states
system.cpu.itb.walker.pwrStateResidencyTicks::UNDEFINED  25507959000                       # Cumulative time (in ticks) in various power states
system.cpu.itb.rdAccesses                           0                       # TLB accesses on read requests
system.cpu.itb.wrAccesses                      172425                       # TLB accesses on write requests
system.cpu.itb.rdMisses                             0                       # TLB misses on read requests
system.cpu.itb.wrMisses                           167                       # TLB misses on write requests
system.cpu.workload.numSyscalls                    32                       # Number of system calls
system.cpu.pwrStateResidencyTicks::ON     25507959000                       # Cumulative time (in ticks) in various power states
system.cpu.numCycles                         25507960                       # number of cpu cycles simulated
system.cpu.numWorkItemsStarted                      0                       # number of work items this cpu started
system.cpu.numWorkItemsCompleted                    0                       # number of work items this cpu completed
system.cpu.fetch.icacheStallCycles             200899                       # Number of cycles fetch is stalled on an Icache miss
system.cpu.fetch.Insts                       12674437                       # Number of instructions fetch has processed
system.cpu.fetch.Branches                     2356622                       # Number of branches that fetch encountered
system.cpu.fetch.predictedBranches            2296524                       # Number of branches that fetch has predicted taken
system.cpu.fetch.Cycles                      25251228                       # Number of cycles fetch has run and was not squashing or blocked
system.cpu.fetch.SquashCycles                   16882                       # Number of cycles fetch has spent squashing
system.cpu.fetch.TlbCycles                        109                       # Number of cycles fetch has spent waiting for tlb
system.cpu.fetch.MiscStallCycles                   45                       # Number of cycles fetch has spent waiting on interrupts, or bad addresses, or out of MSHRs
system.cpu.fetch.PendingTrapStallCycles           450                       # Number of stall cycles due to pending traps
system.cpu.fetch.PendingQuiesceStallCycles           20                       # Number of stall cycles due to pending quiesce instructions
system.cpu.fetch.IcacheWaitRetryStallCycles           53                       # Number of stall cycles due to full MSHR
system.cpu.fetch.CacheLines                    172353                       # Number of cache lines fetched
system.cpu.fetch.IcacheSquashes                  2454                       # Number of outstanding Icache misses that were squashed
system.cpu.fetch.rateDist::samples           25461245                       # Number of instructions fetched each cycle (Total)
system.cpu.fetch.rateDist::mean              0.820834                       # Number of instructions fetched each cycle (Total)
system.cpu.fetch.rateDist::stdev             2.368614                       # Number of instructions fetched each cycle (Total)
system.cpu.fetch.rateDist::underflows               0      0.00%      0.00% # Number of instructions fetched each cycle (Total)
system.cpu.fetch.rateDist::0                 22614353     88.82%     88.82% # Number of instructions fetched each cycle (Total)
system.cpu.fetch.rateDist::1                     8391      0.03%     88.85% # Number of instructions fetched each cycle (Total)
system.cpu.fetch.rateDist::2                     3781      0.01%     88.87% # Number of instructions fetched each cycle (Total)
system.cpu.fetch.rateDist::3                    70621      0.28%     89.14% # Number of instructions fetched each cycle (Total)
system.cpu.fetch.rateDist::4                   301400      1.18%     90.33% # Number of instructions fetched each cycle (Total)
system.cpu.fetch.rateDist::5                    70007      0.27%     90.60% # Number of instructions fetched each cycle (Total)
system.cpu.fetch.rateDist::6                    10075      0.04%     90.64% # Number of instructions fetched each cycle (Total)
system.cpu.fetch.rateDist::7                     5389      0.02%     90.66% # Number of instructions fetched each cycle (Total)
system.cpu.fetch.rateDist::8                  2377228      9.34%    100.00% # Number of instructions fetched each cycle (Total)
system.cpu.fetch.rateDist::overflows                0      0.00%    100.00% # Number of instructions fetched each cycle (Total)
system.cpu.fetch.rateDist::min_value                0                       # Number of instructions fetched each cycle (Total)
system.cpu.fetch.rateDist::max_value                8                       # Number of instructions fetched each cycle (Total)
system.cpu.fetch.rateDist::total             25461245                       # Number of instructions fetched each cycle (Total)
system.cpu.fetch.branchRate                  0.092388                       # Number of branch fetches per cycle
system.cpu.fetch.rate                        0.496882                       # Number of inst fetches per cycle
system.cpu.decode.IdleCycles                   902424                       # Number of cycles decode is idle
system.cpu.decode.BlockedCycles              21922274                       # Number of cycles decode is blocked
system.cpu.decode.RunCycles                    721860                       # Number of cycles decode is running
system.cpu.decode.UnblockCycles               1906246                       # Number of cycles decode is unblocking
system.cpu.decode.SquashCycles                   8441                       # Number of cycles decode is squashing
system.cpu.decode.DecodedInsts               20810667                       # Number of instructions handled by decode
system.cpu.rename.SquashCycles                   8441                       # Number of cycles rename is squashing
system.cpu.rename.IdleCycles                  1341849                       # Number of cycles rename is idle
system.cpu.rename.BlockCycles                 7173891                       # Number of cycles rename is blocking
system.cpu.rename.serializeStallCycles           2134                       # count of cycles rename stalled for serializing inst
system.cpu.rename.RunCycles                   2171127                       # Number of cycles rename is running
system.cpu.rename.UnblockCycles              14763803                       # Number of cycles rename is unblocking
system.cpu.rename.RenamedInsts               20768861                       # Number of instructions processed by rename
system.cpu.rename.ROBFullEvents                  1810                       # Number of times rename has blocked due to ROB full
system.cpu.rename.IQFullEvents                  56980                       # Number of times rename has blocked due to IQ full
system.cpu.rename.LQFullEvents                    488                       # Number of times rename has blocked due to LQ full
system.cpu.rename.SQFullEvents               14263742                       # Number of times rename has blocked due to SQ full
system.cpu.rename.RenamedOperands            30055842                       # Number of destination operands rename has renamed
system.cpu.rename.RenameLookups              51388349                       # Number of register rename lookups that rename has made
system.cpu.rename.int_rename_lookups         28133975                       # Number of integer rename lookups
system.cpu.rename.fp_rename_lookups           4391677                       # Number of floating rename lookups
system.cpu.rename.CommittedMaps              29546860                       # Number of HB maps that are committed
system.cpu.rename.UndoneMaps                   508982                       # Number of HB maps that are undone due to squashing
system.cpu.rename.serializingInsts                 94                       # count of serializing insts renamed
system.cpu.rename.tempSerializingInsts             67                       # count of temporary serializing insts renamed
system.cpu.rename.skidInsts                   9308252                       # count of insts added to the skid buffer
system.cpu.memDep0.insertedLoads               205215                       # Number of loads inserted to the mem dependence unit.
system.cpu.memDep0.insertedStores             2217611                       # Number of stores inserted to the mem dependence unit.
system.cpu.memDep0.conflictingLoads               847                       # Number of conflicting loads.
system.cpu.memDep0.conflictingStores              337                       # Number of conflicting stores.
system.cpu.iq.iqInstsAdded                   20698979                       # Number of instructions added to the IQ (excludes non-spec)
system.cpu.iq.iqNonSpecInstsAdded                 137                       # Number of non-speculative instructions added to the IQ
system.cpu.iq.iqInstsIssued                  20596125                       # Number of instructions issued
system.cpu.iq.iqSquashedInstsIssued              2679                       # Number of squashed instructions issued
system.cpu.iq.iqSquashedInstsExamined          334602                       # Number of squashed instructions iterated over during squash; mainly for profiling
system.cpu.iq.iqSquashedOperandsExamined       470564                       # Number of squashed operands that are examined and possibly removed from graph
system.cpu.iq.iqSquashedNonSpecRemoved             93                       # Number of squashed non-spec instructions that were removed
system.cpu.iq.issued_per_cycle::samples      25461245                       # Number of insts issued each cycle
system.cpu.iq.issued_per_cycle::mean         0.808921                       # Number of insts issued each cycle
system.cpu.iq.issued_per_cycle::stdev        1.815841                       # Number of insts issued each cycle
system.cpu.iq.issued_per_cycle::underflows            0      0.00%      0.00% # Number of insts issued each cycle
system.cpu.iq.issued_per_cycle::0            20171793     79.23%     79.23% # Number of insts issued each cycle
system.cpu.iq.issued_per_cycle::1              847814      3.33%     82.56% # Number of insts issued each cycle
system.cpu.iq.issued_per_cycle::2             1053572      4.14%     86.69% # Number of insts issued each cycle
system.cpu.iq.issued_per_cycle::3              197338      0.78%     87.47% # Number of insts issued each cycle
system.cpu.iq.issued_per_cycle::4              651992      2.56%     90.03% # Number of insts issued each cycle
system.cpu.iq.issued_per_cycle::5             1055883      4.15%     94.18% # Number of insts issued each cycle
system.cpu.iq.issued_per_cycle::6             1279794      5.03%     99.20% # Number of insts issued each cycle
system.cpu.iq.issued_per_cycle::7              141466      0.56%     99.76% # Number of insts issued each cycle
system.cpu.iq.issued_per_cycle::8               61593      0.24%    100.00% # Number of insts issued each cycle
system.cpu.iq.issued_per_cycle::overflows            0      0.00%    100.00% # Number of insts issued each cycle
system.cpu.iq.issued_per_cycle::min_value            0                       # Number of insts issued each cycle
system.cpu.iq.issued_per_cycle::max_value            8                       # Number of insts issued each cycle
system.cpu.iq.issued_per_cycle::total        25461245                       # Number of insts issued each cycle
system.cpu.iq.fu_full::No_OpClass                   0      0.00%      0.00% # attempts to use FU when none available
system.cpu.iq.fu_full::IntAlu                   55202     20.04%     20.04% # attempts to use FU when none available
system.cpu.iq.fu_full::IntMult                      0      0.00%     20.04% # attempts to use FU when none available
system.cpu.iq.fu_full::IntDiv                       0      0.00%     20.04% # attempts to use FU when none available
system.cpu.iq.fu_full::FloatAdd                     0      0.00%     20.04% # attempts to use FU when none available
system.cpu.iq.fu_full::FloatCmp                     0      0.00%     20.04% # attempts to use FU when none available
system.cpu.iq.fu_full::FloatCvt                     0      0.00%     20.04% # attempts to use FU when none available
system.cpu.iq.fu_full::FloatMult                    0      0.00%     20.04% # attempts to use FU when none available
system.cpu.iq.fu_full::FloatMultAcc                 0      0.00%     20.04% # attempts to use FU when none available
system.cpu.iq.fu_full::FloatDiv                     0      0.00%     20.04% # attempts to use FU when none available
system.cpu.iq.fu_full::FloatMisc                    0      0.00%     20.04% # attempts to use FU when none available
system.cpu.iq.fu_full::FloatSqrt                    0      0.00%     20.04% # attempts to use FU when none available
system.cpu.iq.fu_full::SimdAdd                      1      0.00%     20.04% # attempts to use FU when none available
system.cpu.iq.fu_full::SimdAddAcc                   0      0.00%     20.04% # attempts to use FU when none available
system.cpu.iq.fu_full::SimdAlu                  78095     28.35%     48.39% # attempts to use FU when none available
system.cpu.iq.fu_full::SimdCmp                      0      0.00%     48.39% # attempts to use FU when none available
system.cpu.iq.fu_full::SimdCvt                  78113     28.36%     76.75% # attempts to use FU when none available
system.cpu.iq.fu_full::SimdMisc                 62492     22.69%     99.44% # attempts to use FU when none available
system.cpu.iq.fu_full::SimdMult                     0      0.00%     99.44% # attempts to use FU when none available
system.cpu.iq.fu_full::SimdMultAcc                  0      0.00%     99.44% # attempts to use FU when none available
system.cpu.iq.fu_full::SimdShift                    0      0.00%     99.44% # attempts to use FU when none available
system.cpu.iq.fu_full::SimdShiftAcc                 0      0.00%     99.44% # attempts to use FU when none available
system.cpu.iq.fu_full::SimdSqrt                     0      0.00%     99.44% # attempts to use FU when none available
system.cpu.iq.fu_full::SimdFloatAdd                 0      0.00%     99.44% # attempts to use FU when none available
system.cpu.iq.fu_full::SimdFloatAlu                 0      0.00%     99.44% # attempts to use FU when none available
system.cpu.iq.fu_full::SimdFloatCmp                 0      0.00%     99.44% # attempts to use FU when none available
system.cpu.iq.fu_full::SimdFloatCvt                 0      0.00%     99.44% # attempts to use FU when none available
system.cpu.iq.fu_full::SimdFloatDiv                 0      0.00%     99.44% # attempts to use FU when none available
system.cpu.iq.fu_full::SimdFloatMisc                0      0.00%     99.44% # attempts to use FU when none available
system.cpu.iq.fu_full::SimdFloatMult                0      0.00%     99.44% # attempts to use FU when none available
system.cpu.iq.fu_full::SimdFloatMultAcc             0      0.00%     99.44% # attempts to use FU when none available
system.cpu.iq.fu_full::SimdFloatSqrt                0      0.00%     99.44% # attempts to use FU when none available
system.cpu.iq.fu_full::SimdAes                      0      0.00%     99.44% # attempts to use FU when none available
system.cpu.iq.fu_full::SimdAesMix                   0      0.00%     99.44% # attempts to use FU when none available
system.cpu.iq.fu_full::SimdSha1Hash                 0      0.00%     99.44% # attempts to use FU when none available
system.cpu.iq.fu_full::SimdSha1Hash2                0      0.00%     99.44% # attempts to use FU when none available
system.cpu.iq.fu_full::SimdSha256Hash               0      0.00%     99.44% # attempts to use FU when none available
system.cpu.iq.fu_full::SimdSha256Hash2              0      0.00%     99.44% # attempts to use FU when none available
system.cpu.iq.fu_full::SimdShaSigma2                0      0.00%     99.44% # attempts to use FU when none available
system.cpu.iq.fu_full::SimdShaSigma3                0      0.00%     99.44% # attempts to use FU when none available
system.cpu.iq.fu_full::MemRead                   1010      0.37%     99.80% # attempts to use FU when none available
system.cpu.iq.fu_full::MemWrite                   468      0.17%     99.97% # attempts to use FU when none available
system.cpu.iq.fu_full::FloatMemRead                34      0.01%     99.98% # attempts to use FU when none available
system.cpu.iq.fu_full::FloatMemWrite               43      0.02%    100.00% # attempts to use FU when none available
system.cpu.iq.fu_full::IprAccess                    0      0.00%    100.00% # attempts to use FU when none available
system.cpu.iq.fu_full::InstPrefetch                 0      0.00%    100.00% # attempts to use FU when none available
system.cpu.iq.FU_type_0::No_OpClass              3915      0.02%      0.02% # Type of FU issued
system.cpu.iq.FU_type_0::IntAlu              16674619     80.96%     80.98% # Type of FU issued
system.cpu.iq.FU_type_0::IntMult                 1251      0.01%     80.99% # Type of FU issued
system.cpu.iq.FU_type_0::IntDiv                  1219      0.01%     80.99% # Type of FU issued
system.cpu.iq.FU_type_0::FloatAdd                 346      0.00%     80.99% # Type of FU issued
system.cpu.iq.FU_type_0::FloatCmp                   0      0.00%     80.99% # Type of FU issued
system.cpu.iq.FU_type_0::FloatCvt                   0      0.00%     80.99% # Type of FU issued
system.cpu.iq.FU_type_0::FloatMult                  0      0.00%     80.99% # Type of FU issued
system.cpu.iq.FU_type_0::FloatMultAcc               0      0.00%     80.99% # Type of FU issued
system.cpu.iq.FU_type_0::FloatDiv                   0      0.00%     80.99% # Type of FU issued
system.cpu.iq.FU_type_0::FloatMisc                  0      0.00%     80.99% # Type of FU issued
system.cpu.iq.FU_type_0::FloatSqrt                  0      0.00%     80.99% # Type of FU issued
system.cpu.iq.FU_type_0::SimdAdd               500499      2.43%     83.42% # Type of FU issued
system.cpu.iq.FU_type_0::SimdAddAcc                 0      0.00%     83.42% # Type of FU issued
system.cpu.iq.FU_type_0::SimdAlu               126067      0.61%     84.03% # Type of FU issued
system.cpu.iq.FU_type_0::SimdCmp                    6      0.00%     84.03% # Type of FU issued
system.cpu.iq.FU_type_0::SimdCvt               126271      0.61%     84.65% # Type of FU issued
system.cpu.iq.FU_type_0::SimdMisc              750697      3.64%     88.29% # Type of FU issued
system.cpu.iq.FU_type_0::SimdMult                   0      0.00%     88.29% # Type of FU issued
system.cpu.iq.FU_type_0::SimdMultAcc                0      0.00%     88.29% # Type of FU issued
system.cpu.iq.FU_type_0::SimdShift                388      0.00%     88.29% # Type of FU issued
system.cpu.iq.FU_type_0::SimdShiftAcc               0      0.00%     88.29% # Type of FU issued
system.cpu.iq.FU_type_0::SimdSqrt                   0      0.00%     88.29% # Type of FU issued
system.cpu.iq.FU_type_0::SimdFloatAdd               0      0.00%     88.29% # Type of FU issued
system.cpu.iq.FU_type_0::SimdFloatAlu               0      0.00%     88.29% # Type of FU issued
system.cpu.iq.FU_type_0::SimdFloatCmp               0      0.00%     88.29% # Type of FU issued
system.cpu.iq.FU_type_0::SimdFloatCvt               0      0.00%     88.29% # Type of FU issued
system.cpu.iq.FU_type_0::SimdFloatDiv               0      0.00%     88.29% # Type of FU issued
system.cpu.iq.FU_type_0::SimdFloatMisc              0      0.00%     88.29% # Type of FU issued
system.cpu.iq.FU_type_0::SimdFloatMult              0      0.00%     88.29% # Type of FU issued
system.cpu.iq.FU_type_0::SimdFloatMultAcc            0      0.00%     88.29% # Type of FU issued
system.cpu.iq.FU_type_0::SimdFloatSqrt              0      0.00%     88.29% # Type of FU issued
system.cpu.iq.FU_type_0::SimdAes                    0      0.00%     88.29% # Type of FU issued
system.cpu.iq.FU_type_0::SimdAesMix                 0      0.00%     88.29% # Type of FU issued
system.cpu.iq.FU_type_0::SimdSha1Hash               0      0.00%     88.29% # Type of FU issued
system.cpu.iq.FU_type_0::SimdSha1Hash2              0      0.00%     88.29% # Type of FU issued
system.cpu.iq.FU_type_0::SimdSha256Hash             0      0.00%     88.29% # Type of FU issued
system.cpu.iq.FU_type_0::SimdSha256Hash2            0      0.00%     88.29% # Type of FU issued
system.cpu.iq.FU_type_0::SimdShaSigma2              0      0.00%     88.29% # Type of FU issued
system.cpu.iq.FU_type_0::SimdShaSigma3              0      0.00%     88.29% # Type of FU issued
system.cpu.iq.FU_type_0::MemRead                70172      0.34%     88.64% # Type of FU issued
system.cpu.iq.FU_type_0::MemWrite             2213157     10.75%     99.38% # Type of FU issued
system.cpu.iq.FU_type_0::FloatMemRead          127041      0.62%    100.00% # Type of FU issued
system.cpu.iq.FU_type_0::FloatMemWrite            477      0.00%    100.00% # Type of FU issued
system.cpu.iq.FU_type_0::IprAccess                  0      0.00%    100.00% # Type of FU issued
system.cpu.iq.FU_type_0::InstPrefetch               0      0.00%    100.00% # Type of FU issued
system.cpu.iq.FU_type_0::total               20596125                       # Type of FU issued
system.cpu.iq.rate                           0.807439                       # Inst issue rate
system.cpu.iq.fu_busy_cnt                      275458                       # FU busy when requested
system.cpu.iq.fu_busy_rate                   0.013374                       # FU busy rate (busy events/executed inst)
system.cpu.iq.int_inst_queue_reads           62698978                       # Number of integer instruction queue reads
system.cpu.iq.int_inst_queue_writes          19018968                       # Number of integer instruction queue writes
system.cpu.iq.int_inst_queue_wakeup_accesses     18556963                       # Number of integer instruction queue wakeup accesses
system.cpu.iq.fp_inst_queue_reads             4232654                       # Number of floating instruction queue reads
system.cpu.iq.fp_inst_queue_writes            2014797                       # Number of floating instruction queue writes
system.cpu.iq.fp_inst_queue_wakeup_accesses      2006179                       # Number of floating instruction queue wakeup accesses
system.cpu.iq.vec_inst_queue_reads                  0                       # Number of vector instruction queue reads
system.cpu.iq.vec_inst_queue_writes                 0                       # Number of vector instruction queue writes
system.cpu.iq.vec_inst_queue_wakeup_accesses            0                       # Number of vector instruction queue wakeup accesses
system.cpu.iq.int_alu_accesses               18641997                       # Number of integer alu accesses
system.cpu.iq.fp_alu_accesses                 2225671                       # Number of floating point alu accesses
system.cpu.iq.vec_alu_accesses                      0                       # Number of vector alu accesses
system.cpu.iew.lsq.thread0.forwLoads             2377                       # Number of loads that had data forwarded from stores
system.cpu.iew.lsq.thread0.invAddrLoads             0                       # Number of loads ignored due to an invalid address
system.cpu.iew.lsq.thread0.squashedLoads        43847                       # Number of loads squashed
system.cpu.iew.lsq.thread0.ignoredResponses           15                       # Number of memory responses ignored because the instruction is squashed
system.cpu.iew.lsq.thread0.memOrderViolation           50                       # Number of memory ordering violations
system.cpu.iew.lsq.thread0.squashedStores         9033                       # Number of stores squashed
system.cpu.iew.lsq.thread0.invAddrSwpfs             0                       # Number of software prefetches ignored due to an invalid address
system.cpu.iew.lsq.thread0.blockedLoads             0                       # Number of blocked loads due to partial load-store forwarding
system.cpu.iew.lsq.thread0.rescheduledLoads            3                       # Number of loads that were rescheduled
system.cpu.iew.lsq.thread0.cacheBlocked           233                       # Number of times an access to memory failed due to the cache being blocked
system.cpu.iew.iewIdleCycles                        0                       # Number of cycles IEW is idle
system.cpu.iew.iewSquashCycles                   8441                       # Number of cycles IEW is squashing
system.cpu.iew.iewBlockCycles                  336909                       # Number of cycles IEW is blocking
system.cpu.iew.iewUnblockCycles               6770549                       # Number of cycles IEW is unblocking
system.cpu.iew.iewDispatchedInsts            20699116                       # Number of instructions dispatched to IQ
system.cpu.iew.iewDispSquashedInsts               378                       # Number of squashed instructions skipped by dispatch
system.cpu.iew.iewDispLoadInsts                205215                       # Number of dispatched load instructions
system.cpu.iew.iewDispStoreInsts              2217611                       # Number of dispatched store instructions
system.cpu.iew.iewDispNonSpecInsts                 82                       # Number of dispatched non-speculative instructions
system.cpu.iew.iewIQFullEvents                    843                       # Number of times the IQ has become full, causing a stall
system.cpu.iew.iewLSQFullEvents               6769495                       # Number of times the LSQ has become full, causing a stall
system.cpu.iew.memOrderViolationEvents             50                       # Number of memory order violations
system.cpu.iew.predictedTakenIncorrect           2287                       # Number of branches that were predicted taken incorrectly
system.cpu.iew.predictedNotTakenIncorrect         8584                       # Number of branches that were predicted not taken incorrectly
system.cpu.iew.branchMispredicts                10871                       # Number of branch mispredicts detected at execute
system.cpu.iew.iewExecutedInsts              20576909                       # Number of executed instructions
system.cpu.iew.iewExecLoadInsts                193000                       # Number of load instructions executed
system.cpu.iew.iewExecSquashedInsts             19216                       # Number of squashed instructions skipped in execute
system.cpu.iew.exec_swp                             0                       # number of swp insts executed
system.cpu.iew.exec_nop                             0                       # number of nop insts executed
system.cpu.iew.exec_refs                      2405661                       # number of memory reference insts executed
system.cpu.iew.exec_branches                  2306958                       # Number of branches executed
system.cpu.iew.exec_stores                    2212661                       # Number of stores executed
system.cpu.iew.exec_rate                     0.806686                       # Inst execution rate
system.cpu.iew.wb_sent                       20568895                       # cumulative count of insts sent to commit
system.cpu.iew.wb_count                      20563142                       # cumulative count of insts written-back
system.cpu.iew.wb_producers                  11815051                       # num instructions producing a value
system.cpu.iew.wb_consumers                  17976522                       # num instructions consuming a value
system.cpu.iew.wb_rate                       0.806146                       # insts written-back per cycle
system.cpu.iew.wb_fanout                     0.657249                       # average fanout of values written-back
system.cpu.commit.commitSquashedInsts          335701                       # The number of squashed insts skipped by commit
system.cpu.commit.commitNonSpecStalls              44                       # The number of times commit has been forced to stall to communicate backwards
system.cpu.commit.branchMispredicts              8402                       # The number of times a branch was mispredicted
system.cpu.commit.committed_per_cycle::samples     25411531                       # Number of insts commited each cycle
system.cpu.commit.committed_per_cycle::mean     0.801389                       # Number of insts commited each cycle
system.cpu.commit.committed_per_cycle::stdev     1.874113                       # Number of insts commited each cycle
system.cpu.commit.committed_per_cycle::underflows            0      0.00%      0.00% # Number of insts commited each cycle
system.cpu.commit.committed_per_cycle::0     20158075     79.33%     79.33% # Number of insts commited each cycle
system.cpu.commit.committed_per_cycle::1       785006      3.09%     82.42% # Number of insts commited each cycle
system.cpu.commit.committed_per_cycle::2      1006133      3.96%     86.38% # Number of insts commited each cycle
system.cpu.commit.committed_per_cycle::3      1076970      4.24%     90.61% # Number of insts commited each cycle
system.cpu.commit.committed_per_cycle::4        37924      0.15%     90.76% # Number of insts commited each cycle
system.cpu.commit.committed_per_cycle::5      1518797      5.98%     96.74% # Number of insts commited each cycle
system.cpu.commit.committed_per_cycle::6        18567      0.07%     96.81% # Number of insts commited each cycle
system.cpu.commit.committed_per_cycle::7         1224      0.00%     96.82% # Number of insts commited each cycle
system.cpu.commit.committed_per_cycle::8       808835      3.18%    100.00% # Number of insts commited each cycle
system.cpu.commit.committed_per_cycle::overflows            0      0.00%    100.00% # Number of insts commited each cycle
system.cpu.commit.committed_per_cycle::min_value            0                       # Number of insts commited each cycle
system.cpu.commit.committed_per_cycle::max_value            8                       # Number of insts commited each cycle
system.cpu.commit.committed_per_cycle::total     25411531                       # Number of insts commited each cycle
system.cpu.commit.committedInsts             12389360                       # Number of instructions committed
system.cpu.commit.committedOps               20364513                       # Number of ops (including micro ops) committed
system.cpu.commit.swp_count                         0                       # Number of s/w prefetches committed
system.cpu.commit.refs                        2369946                       # Number of memory references committed
system.cpu.commit.loads                        161368                       # Number of loads committed
system.cpu.commit.membars                           8                       # Number of memory barriers committed
system.cpu.commit.branches                    2292510                       # Number of branches committed
system.cpu.commit.vec_insts                         0                       # Number of committed Vector instructions.
system.cpu.commit.fp_insts                    2003575                       # Number of committed floating point instructions.
system.cpu.commit.int_insts                  18485923                       # Number of committed integer instructions.
system.cpu.commit.function_calls                  664                       # Number of function calls committed.
system.cpu.commit.op_class_0::No_OpClass         1496      0.01%      0.01% # Class of committed instruction
system.cpu.commit.op_class_0::IntAlu         16488596     80.97%     80.97% # Class of committed instruction
system.cpu.commit.op_class_0::IntMult            1015      0.00%     80.98% # Class of committed instruction
system.cpu.commit.op_class_0::IntDiv             1142      0.01%     80.99% # Class of committed instruction
system.cpu.commit.op_class_0::FloatAdd             29      0.00%     80.99% # Class of committed instruction
system.cpu.commit.op_class_0::FloatCmp              0      0.00%     80.99% # Class of committed instruction
system.cpu.commit.op_class_0::FloatCvt              0      0.00%     80.99% # Class of committed instruction
system.cpu.commit.op_class_0::FloatMult             0      0.00%     80.99% # Class of committed instruction
system.cpu.commit.op_class_0::FloatMultAcc            0      0.00%     80.99% # Class of committed instruction
system.cpu.commit.op_class_0::FloatDiv              0      0.00%     80.99% # Class of committed instruction
system.cpu.commit.op_class_0::FloatMisc             0      0.00%     80.99% # Class of committed instruction
system.cpu.commit.op_class_0::FloatSqrt             0      0.00%     80.99% # Class of committed instruction
system.cpu.commit.op_class_0::SimdAdd          500322      2.46%     83.44% # Class of committed instruction
system.cpu.commit.op_class_0::SimdAddAcc            0      0.00%     83.44% # Class of committed instruction
system.cpu.commit.op_class_0::SimdAlu          125493      0.62%     84.06% # Class of committed instruction
system.cpu.commit.op_class_0::SimdCmp               6      0.00%     84.06% # Class of committed instruction
system.cpu.commit.op_class_0::SimdCvt          125754      0.62%     84.68% # Class of committed instruction
system.cpu.commit.op_class_0::SimdMisc         750531      3.69%     88.36% # Class of committed instruction
system.cpu.commit.op_class_0::SimdMult              0      0.00%     88.36% # Class of committed instruction
system.cpu.commit.op_class_0::SimdMultAcc            0      0.00%     88.36% # Class of committed instruction
system.cpu.commit.op_class_0::SimdShift           183      0.00%     88.36% # Class of committed instruction
system.cpu.commit.op_class_0::SimdShiftAcc            0      0.00%     88.36% # Class of committed instruction
system.cpu.commit.op_class_0::SimdSqrt              0      0.00%     88.36% # Class of committed instruction
system.cpu.commit.op_class_0::SimdFloatAdd            0      0.00%     88.36% # Class of committed instruction
system.cpu.commit.op_class_0::SimdFloatAlu            0      0.00%     88.36% # Class of committed instruction
system.cpu.commit.op_class_0::SimdFloatCmp            0      0.00%     88.36% # Class of committed instruction
system.cpu.commit.op_class_0::SimdFloatCvt            0      0.00%     88.36% # Class of committed instruction
system.cpu.commit.op_class_0::SimdFloatDiv            0      0.00%     88.36% # Class of committed instruction
system.cpu.commit.op_class_0::SimdFloatMisc            0      0.00%     88.36% # Class of committed instruction
system.cpu.commit.op_class_0::SimdFloatMult            0      0.00%     88.36% # Class of committed instruction
system.cpu.commit.op_class_0::SimdFloatMultAcc            0      0.00%     88.36% # Class of committed instruction
system.cpu.commit.op_class_0::SimdFloatSqrt            0      0.00%     88.36% # Class of committed instruction
system.cpu.commit.op_class_0::SimdAes               0      0.00%     88.36% # Class of committed instruction
system.cpu.commit.op_class_0::SimdAesMix            0      0.00%     88.36% # Class of committed instruction
system.cpu.commit.op_class_0::SimdSha1Hash            0      0.00%     88.36% # Class of committed instruction
system.cpu.commit.op_class_0::SimdSha1Hash2            0      0.00%     88.36% # Class of committed instruction
system.cpu.commit.op_class_0::SimdSha256Hash            0      0.00%     88.36% # Class of committed instruction
system.cpu.commit.op_class_0::SimdSha256Hash2            0      0.00%     88.36% # Class of committed instruction
system.cpu.commit.op_class_0::SimdShaSigma2            0      0.00%     88.36% # Class of committed instruction
system.cpu.commit.op_class_0::SimdShaSigma3            0      0.00%     88.36% # Class of committed instruction
system.cpu.commit.op_class_0::MemRead           35558      0.17%     88.54% # Class of committed instruction
system.cpu.commit.op_class_0::MemWrite        2208194     10.84%     99.38% # Class of committed instruction
system.cpu.commit.op_class_0::FloatMemRead       125810      0.62%    100.00% # Class of committed instruction
system.cpu.commit.op_class_0::FloatMemWrite          384      0.00%    100.00% # Class of committed instruction
system.cpu.commit.op_class_0::IprAccess             0      0.00%    100.00% # Class of committed instruction
system.cpu.commit.op_class_0::InstPrefetch            0      0.00%    100.00% # Class of committed instruction
system.cpu.commit.op_class_0::total          20364513                       # Class of committed instruction
system.cpu.commit.bw_lim_events                808835                       # number cycles where commit BW limit reached
system.cpu.rob.rob_reads                     45302910                       # The number of ROB reads
system.cpu.rob.rob_writes                    41450716                       # The number of ROB writes
system.cpu.timesIdled                             664                       # Number of times that the entire CPU went into an idle state and unscheduled itself
system.cpu.idleCycles                           46715                       # Total number of cycles that the CPU has spent unscheduled due to idling
system.cpu.committedInsts                    12389360                       # Number of Instructions Simulated
system.cpu.committedOps                      20364513                       # Number of Ops (including micro ops) Simulated
system.cpu.cpi                               2.058860                       # CPI: Cycles Per Instruction
system.cpu.cpi_total                         2.058860                       # CPI: Total CPI of All Threads
system.cpu.ipc                               0.485706                       # IPC: Instructions Per Cycle
system.cpu.ipc_total                         0.485706                       # IPC: Total IPC of All Threads
system.cpu.int_regfile_reads                 27791513                       # number of integer regfile reads
system.cpu.int_regfile_writes                14042038                       # number of integer regfile writes
system.cpu.fp_regfile_reads                   4384540                       # number of floating regfile reads
system.cpu.fp_regfile_writes                  2005280                       # number of floating regfile writes
system.cpu.cc_regfile_reads                  11553889                       # number of cc regfile reads
system.cpu.cc_regfile_writes                 13742095                       # number of cc regfile writes
system.cpu.misc_regfile_reads                 7041020                       # number of misc regfile reads
system.cpu.dcache.tags.pwrStateResidencyTicks::UNDEFINED  25507959000                       # Cumulative time (in ticks) in various power states
system.cpu.dcache.tags.tagsinuse           851.406288                       # Cycle average of tags in use
system.cpu.dcache.tags.total_refs             2338493                       # Total number of references to valid blocks.
system.cpu.dcache.tags.sampled_refs            781923                       # Sample count of references to valid blocks.
system.cpu.dcache.tags.avg_refs              2.990695                       # Average number of references to valid blocks.
system.cpu.dcache.tags.warmup_cycle            232000                       # Cycle when the warmup percentage was hit.
system.cpu.dcache.tags.occ_blocks::.cpu.data   851.406288                       # Average occupied blocks per requestor
system.cpu.dcache.tags.occ_percent::.cpu.data     0.831451                       # Average percentage of cache occupancy
system.cpu.dcache.tags.occ_percent::total     0.831451                       # Average percentage of cache occupancy
system.cpu.dcache.tags.occ_task_id_blocks::1024          820                       # Occupied blocks per task id
system.cpu.dcache.tags.age_task_id_blocks_1024::0           46                       # Occupied blocks per task id
system.cpu.dcache.tags.age_task_id_blocks_1024::1          774                       # Occupied blocks per task id
system.cpu.dcache.tags.occ_task_id_percent::1024     0.800781                       # Percentage of cache occupancy per task id
system.cpu.dcache.tags.tag_accesses           5576439                       # Number of tag accesses
system.cpu.dcache.tags.data_accesses          5576439                       # Number of data accesses
system.cpu.dcache.pwrStateResidencyTicks::UNDEFINED  25507959000                       # Cumulative time (in ticks) in various power states
system.cpu.dcache.ReadReq_hits::.cpu.data       111813                       # number of ReadReq hits
system.cpu.dcache.ReadReq_hits::total          111813                       # number of ReadReq hits
system.cpu.dcache.WriteReq_hits::.cpu.data      1444757                       # number of WriteReq hits
system.cpu.dcache.WriteReq_hits::total        1444757                       # number of WriteReq hits
system.cpu.dcache.demand_hits::.cpu.data      1556570                       # number of demand (read+write) hits
system.cpu.dcache.demand_hits::total          1556570                       # number of demand (read+write) hits
system.cpu.dcache.overall_hits::.cpu.data      1556570                       # number of overall hits
system.cpu.dcache.overall_hits::total         1556570                       # number of overall hits
system.cpu.dcache.ReadReq_misses::.cpu.data        76867                       # number of ReadReq misses
system.cpu.dcache.ReadReq_misses::total         76867                       # number of ReadReq misses
system.cpu.dcache.WriteReq_misses::.cpu.data       763821                       # number of WriteReq misses
system.cpu.dcache.WriteReq_misses::total       763821                       # number of WriteReq misses
system.cpu.dcache.demand_misses::.cpu.data       840688                       # number of demand (read+write) misses
system.cpu.dcache.demand_misses::total         840688                       # number of demand (read+write) misses
system.cpu.dcache.overall_misses::.cpu.data       840688                       # number of overall misses
system.cpu.dcache.overall_misses::total        840688                       # number of overall misses
system.cpu.dcache.ReadReq_miss_latency::.cpu.data   2590465000                       # number of ReadReq miss cycles
system.cpu.dcache.ReadReq_miss_latency::total   2590465000                       # number of ReadReq miss cycles
system.cpu.dcache.WriteReq_miss_latency::.cpu.data  21588004999                       # number of WriteReq miss cycles
system.cpu.dcache.WriteReq_miss_latency::total  21588004999                       # number of WriteReq miss cycles
system.cpu.dcache.demand_miss_latency::.cpu.data  24178469999                       # number of demand (read+write) miss cycles
system.cpu.dcache.demand_miss_latency::total  24178469999                       # number of demand (read+write) miss cycles
system.cpu.dcache.overall_miss_latency::.cpu.data  24178469999                       # number of overall miss cycles
system.cpu.dcache.overall_miss_latency::total  24178469999                       # number of overall miss cycles
system.cpu.dcache.ReadReq_accesses::.cpu.data       188680                       # number of ReadReq accesses(hits+misses)
system.cpu.dcache.ReadReq_accesses::total       188680                       # number of ReadReq accesses(hits+misses)
system.cpu.dcache.WriteReq_accesses::.cpu.data      2208578                       # number of WriteReq accesses(hits+misses)
system.cpu.dcache.WriteReq_accesses::total      2208578                       # number of WriteReq accesses(hits+misses)
[...]
system.l2.WritebackClean_accesses::total          248                       # number of WritebackClean accesses(hits+misses)
system.l2.ReadExReq_accesses::.cpu.data        763815                       # number of ReadExReq accesses(hits+misses)
system.l2.ReadExReq_accesses::total            763815                       # number of ReadExReq accesses(hits+misses)
system.l2.ReadCleanReq_accesses::.cpu.inst         1101                       # number of ReadCleanReq accesses(hits+misses)
system.l2.ReadCleanReq_accesses::total           1101                       # number of ReadCleanReq accesses(hits+misses)
system.l2.ReadSharedReq_accesses::.cpu.data        18108                       # number of ReadSharedReq accesses(hits+misses)
system.l2.ReadSharedReq_accesses::total         18108                       # number of ReadSharedReq accesses(hits+misses)
system.l2.demand_accesses::.cpu.inst             1101                       # number of demand (read+write) accesses
system.l2.demand_accesses::.cpu.data           781923                       # number of demand (read+write) accesses
system.l2.demand_accesses::total               783024                       # number of demand (read+write) accesses
system.l2.overall_accesses::.cpu.inst            1101                       # number of overall (read+write) accesses
system.l2.overall_accesses::.cpu.data          781923                       # number of overall (read+write) accesses
system.l2.overall_accesses::total              783024                       # number of overall (read+write) accesses
system.l2.ReadExReq_miss_rate::.cpu.data     0.021047                       # miss rate for ReadExReq accesses
system.l2.ReadExReq_miss_rate::total         0.021047                       # miss rate for ReadExReq accesses
system.l2.ReadCleanReq_miss_rate::.cpu.inst     0.987284                       # miss rate for ReadCleanReq accesses
system.l2.ReadCleanReq_miss_rate::total      0.987284                       # miss rate for ReadCleanReq accesses
system.l2.ReadSharedReq_miss_rate::.cpu.data     0.107025                       # miss rate for ReadSharedReq accesses
system.l2.ReadSharedReq_miss_rate::total     0.107025                       # miss rate for ReadSharedReq accesses
system.l2.demand_miss_rate::.cpu.inst        0.987284                       # miss rate for demand accesses
system.l2.demand_miss_rate::.cpu.data        0.023038                       # miss rate for demand accesses
system.l2.demand_miss_rate::total            0.024394                       # miss rate for demand accesses
system.l2.overall_miss_rate::.cpu.inst       0.987284                       # miss rate for overall accesses
system.l2.overall_miss_rate::.cpu.data       0.023038                       # miss rate for overall accesses
system.l2.overall_miss_rate::total           0.024394                       # miss rate for overall accesses
system.l2.ReadExReq_avg_miss_latency::.cpu.data 102724.060712                       # average ReadExReq miss latency
system.l2.ReadExReq_avg_miss_latency::total 102724.060712                       # average ReadExReq miss latency
system.l2.ReadCleanReq_avg_miss_latency::.cpu.inst 104534.498620                       # average ReadCleanReq miss latency
system.l2.ReadCleanReq_avg_miss_latency::total 104534.498620                       # average ReadCleanReq miss latency
system.l2.ReadSharedReq_avg_miss_latency::.cpu.data 104521.671827                       # average ReadSharedReq miss latency
system.l2.ReadSharedReq_avg_miss_latency::total 104521.671827                       # average ReadSharedReq miss latency
system.l2.demand_avg_miss_latency::.cpu.inst 104534.498620                       # average overall miss latency
system.l2.demand_avg_miss_latency::.cpu.data 102917.453092                       # average overall miss latency
system.l2.demand_avg_miss_latency::total 103009.475944                       # average overall miss latency
system.l2.overall_avg_miss_latency::.cpu.inst 104534.498620                       # average overall miss latency
system.l2.overall_avg_miss_latency::.cpu.data 102917.453092                       # average overall miss latency
system.l2.overall_avg_miss_latency::total 103009.475944                       # average overall miss latency
system.l2.blocked_cycles::no_mshrs                  0                       # number of cycles access was blocked
system.l2.blocked_cycles::no_targets                0                       # number of cycles access was blocked
system.l2.blocked::no_mshrs                         0                       # number of cycles access was blocked
system.l2.blocked::no_targets                       0                       # number of cycles access was blocked
system.l2.avg_blocked_cycles::no_mshrs            nan                       # average number of cycles each access was blocked
system.l2.avg_blocked_cycles::no_targets          nan                       # average number of cycles each access was blocked
system.l2.ReadExReq_mshr_misses::.cpu.data        16076                       # number of ReadExReq MSHR misses
system.l2.ReadExReq_mshr_misses::total          16076                       # number of ReadExReq MSHR misses
system.l2.ReadCleanReq_mshr_misses::.cpu.inst         1087                       # number of ReadCleanReq MSHR misses
system.l2.ReadCleanReq_mshr_misses::total         1087                       # number of ReadCleanReq MSHR misses
system.l2.ReadSharedReq_mshr_misses::.cpu.data         1938                       # number of ReadSharedReq MSHR misses
system.l2.ReadSharedReq_mshr_misses::total         1938                       # number of ReadSharedReq MSHR misses
system.l2.demand_mshr_misses::.cpu.inst          1087                       # number of demand (read+write) MSHR misses
system.l2.demand_mshr_misses::.cpu.data         18014                       # number of demand (read+write) MSHR misses
system.l2.demand_mshr_misses::total             19101                       # number of demand (read+write) MSHR misses
system.l2.overall_mshr_misses::.cpu.inst         1087                       # number of overall MSHR misses
system.l2.overall_mshr_misses::.cpu.data        18014                       # number of overall MSHR misses
system.l2.overall_mshr_misses::total            19101                       # number of overall MSHR misses
system.l2.ReadExReq_mshr_miss_latency::.cpu.data   1329872000                       # number of ReadExReq MSHR miss cycles
system.l2.ReadExReq_mshr_miss_latency::total   1329872000                       # number of ReadExReq MSHR miss cycles
system.l2.ReadCleanReq_mshr_miss_latency::.cpu.inst     91889000                       # number of ReadCleanReq MSHR miss cycles
system.l2.ReadCleanReq_mshr_miss_latency::total     91889000                       # number of ReadCleanReq MSHR miss cycles
system.l2.ReadSharedReq_mshr_miss_latency::.cpu.data    163803000                       # number of ReadSharedReq MSHR miss cycles
system.l2.ReadSharedReq_mshr_miss_latency::total    163803000                       # number of ReadSharedReq MSHR miss cycles
system.l2.demand_mshr_miss_latency::.cpu.inst     91889000                       # number of demand (read+write) MSHR miss cycles
system.l2.demand_mshr_miss_latency::.cpu.data   1493675000                       # number of demand (read+write) MSHR miss cycles
system.l2.demand_mshr_miss_latency::total   1585564000                       # number of demand (read+write) MSHR miss cycles
system.l2.overall_mshr_miss_latency::.cpu.inst     91889000                       # number of overall MSHR miss cycles
system.l2.overall_mshr_miss_latency::.cpu.data   1493675000                       # number of overall MSHR miss cycles
system.l2.overall_mshr_miss_latency::total   1585564000                       # number of overall MSHR miss cycles
system.l2.ReadExReq_mshr_miss_rate::.cpu.data     0.021047                       # mshr miss rate for ReadExReq accesses
system.l2.ReadExReq_mshr_miss_rate::total     0.021047                       # mshr miss rate for ReadExReq accesses
system.l2.ReadCleanReq_mshr_miss_rate::.cpu.inst     0.987284                       # mshr miss rate for ReadCleanReq accesses
system.l2.ReadCleanReq_mshr_miss_rate::total     0.987284                       # mshr miss rate for ReadCleanReq accesses
system.l2.ReadSharedReq_mshr_miss_rate::.cpu.data     0.107025                       # mshr miss rate for ReadSharedReq accesses
system.l2.ReadSharedReq_mshr_miss_rate::total     0.107025                       # mshr miss rate for ReadSharedReq accesses
system.l2.demand_mshr_miss_rate::.cpu.inst     0.987284                       # mshr miss rate for demand accesses
system.l2.demand_mshr_miss_rate::.cpu.data     0.023038                       # mshr miss rate for demand accesses
system.l2.demand_mshr_miss_rate::total       0.024394                       # mshr miss rate for demand accesses
system.l2.overall_mshr_miss_rate::.cpu.inst     0.987284                       # mshr miss rate for overall accesses
system.l2.overall_mshr_miss_rate::.cpu.data     0.023038                       # mshr miss rate for overall accesses
system.l2.overall_mshr_miss_rate::total      0.024394                       # mshr miss rate for overall accesses
system.l2.ReadExReq_avg_mshr_miss_latency::.cpu.data 82724.060712                       # average ReadExReq mshr miss latency
system.l2.ReadExReq_avg_mshr_miss_latency::total 82724.060712                       # average ReadExReq mshr miss latency
system.l2.ReadCleanReq_avg_mshr_miss_latency::.cpu.inst 84534.498620                       # average ReadCleanReq mshr miss latency
system.l2.ReadCleanReq_avg_mshr_miss_latency::total 84534.498620                       # average ReadCleanReq mshr miss latency
system.l2.ReadSharedReq_avg_mshr_miss_latency::.cpu.data 84521.671827                       # average ReadSharedReq mshr miss latency
system.l2.ReadSharedReq_avg_mshr_miss_latency::total 84521.671827                       # average ReadSharedReq mshr miss latency
system.l2.demand_avg_mshr_miss_latency::.cpu.inst 84534.498620                       # average overall mshr miss latency
system.l2.demand_avg_mshr_miss_latency::.cpu.data 82917.453092                       # average overall mshr miss latency
system.l2.demand_avg_mshr_miss_latency::total 83009.475944                       # average overall mshr miss latency
system.l2.overall_avg_mshr_miss_latency::.cpu.inst 84534.498620                       # average overall mshr miss latency
system.l2.overall_avg_mshr_miss_latency::.cpu.data 82917.453092                       # average overall mshr miss latency
system.l2.overall_avg_mshr_miss_latency::total 83009.475944                       # average overall mshr miss latency
system.l2.replacements                              0                       # number of replacements
system.membus.snoop_filter.tot_requests         19101                       # Total number of requests made to the snoop filter.
system.membus.snoop_filter.hit_single_requests            0                       # Number of requests hitting in the snoop filter with a single holder of the requested data.
system.membus.snoop_filter.hit_multi_requests            0                       # Number of requests hitting in the snoop filter with multiple (>1) holders of the requested data.
system.membus.snoop_filter.tot_snoops               0                       # Total number of snoops made to the snoop filter.
system.membus.snoop_filter.hit_single_snoops            0                       # Number of snoops hitting in the snoop filter with a single holder of the requested data.
system.membus.snoop_filter.hit_multi_snoops            0                       # Number of snoops hitting in the snoop filter with multiple (>1) holders of the requested data.
system.membus.pwrStateResidencyTicks::UNDEFINED  25507959000                       # Cumulative time (in ticks) in various power states
system.membus.trans_dist::ReadResp               3025                       # Transaction distribution
system.membus.trans_dist::ReadExReq             16076                       # Transaction distribution
system.membus.trans_dist::ReadExResp            16076                       # Transaction distribution
system.membus.trans_dist::ReadSharedReq          3025                       # Transaction distribution
system.membus.pkt_count_system.l2.mem_side::system.mem_ctrls.port        38202                       # Packet count per connected master and slave (bytes)
system.membus.pkt_count_system.l2.mem_side::total        38202                       # Packet count per connected master and slave (bytes)
system.membus.pkt_count::total                  38202                       # Packet count per connected master and slave (bytes)
system.membus.pkt_size_system.l2.mem_side::system.mem_ctrls.port      1222464                       # Cumulative packet size per connected master and slave (bytes)
system.membus.pkt_size_system.l2.mem_side::total      1222464                       # Cumulative packet size per connected master and slave (bytes)
system.membus.pkt_size::total                 1222464                       # Cumulative packet size per connected master and slave (bytes)
system.membus.snoops                                0                       # Total snoops (count)
system.membus.snoopTraffic                          0                       # Total snoop traffic (bytes)
system.membus.snoop_fanout::samples             19101                       # Request fanout histogram
system.membus.snoop_fanout::mean                    0                       # Request fanout histogram
system.membus.snoop_fanout::stdev                   0                       # Request fanout histogram
system.membus.snoop_fanout::underflows              0      0.00%      0.00% # Request fanout histogram
system.membus.snoop_fanout::0                   19101    100.00%    100.00% # Request fanout histogram
system.membus.snoop_fanout::1                       0      0.00%    100.00% # Request fanout histogram
system.membus.snoop_fanout::overflows               0      0.00%    100.00% # Request fanout histogram
system.membus.snoop_fanout::min_value               0                       # Request fanout histogram
system.membus.snoop_fanout::max_value               0                       # Request fanout histogram
system.membus.snoop_fanout::total               19101                       # Request fanout histogram
system.membus.reqLayer2.occupancy            19101000                       # Layer occupancy (ticks)
system.membus.reqLayer2.utilization               0.1                       # Layer utilization (%)
system.membus.respLayer1.occupancy          100675250                       # Layer occupancy (ticks)
system.membus.respLayer1.utilization              0.4                       # Layer utilization (%)
system.tol2bus.snoop_filter.tot_requests      1564377                       # Total number of requests made to the snoop filter.
system.tol2bus.snoop_filter.hit_single_requests       781355                       # Number of requests hitting in the snoop filter with a single holder of the requested data.
system.tol2bus.snoop_filter.hit_multi_requests           10                       # Number of requests hitting in the snoop filter with multiple (>1) holders of the requested data.
system.tol2bus.snoop_filter.tot_snoops              0                       # Total number of snoops made to the snoop filter.
system.tol2bus.snoop_filter.hit_single_snoops            0                       # Number of snoops hitting in the snoop filter with a single holder of the requested data.
system.tol2bus.snoop_filter.hit_multi_snoops            0                       # Number of snoops hitting in the snoop filter with multiple (>1) holders of the requested data.
system.tol2bus.pwrStateResidencyTicks::UNDEFINED  25507959000                       # Cumulative time (in ticks) in various power states
system.tol2bus.trans_dist::ReadResp             19209                       # Transaction distribution
system.tol2bus.trans_dist::WritebackDirty       779080                       # Transaction distribution
system.tol2bus.trans_dist::WritebackClean          250                       # Transaction distribution
system.tol2bus.trans_dist::CleanEvict            2023                       # Transaction distribution
system.tol2bus.trans_dist::ReadExReq           763815                       # Transaction distribution
system.tol2bus.trans_dist::ReadExResp          763815                       # Transaction distribution
system.tol2bus.trans_dist::ReadCleanReq          1101                       # Transaction distribution
system.tol2bus.trans_dist::ReadSharedReq        18108                       # Transaction distribution
system.tol2bus.pkt_count_system.cpu.icache.mem_side::system.l2.cpu_side         2452                       # Packet count per connected master and slave (bytes)
system.tol2bus.pkt_count_system.cpu.dcache.mem_side::system.l2.cpu_side      2344949                       # Packet count per connected master and slave (bytes)
system.tol2bus.pkt_count::total               2347401                       # Packet count per connected master and slave (bytes)
system.tol2bus.pkt_size_system.cpu.icache.mem_side::system.l2.cpu_side        86464                       # Cumulative packet size per connected master and slave (bytes)
system.tol2bus.pkt_size_system.cpu.dcache.mem_side::system.l2.cpu_side     99904192                       # Cumulative packet size per connected master and slave (bytes)
system.tol2bus.pkt_size::total               99990656                       # Cumulative packet size per connected master and slave (bytes)
system.tol2bus.snoops                               0                       # Total snoops (count)
system.tol2bus.snoopTraffic                         0                       # Total snoop traffic (bytes)
system.tol2bus.snoop_fanout::samples           783024                       # Request fanout histogram
system.tol2bus.snoop_fanout::mean            0.000015                       # Request fanout histogram
system.tol2bus.snoop_fanout::stdev           0.003915                       # Request fanout histogram
system.tol2bus.snoop_fanout::underflows             0      0.00%      0.00% # Request fanout histogram
system.tol2bus.snoop_fanout::0                 783012    100.00%    100.00% # Request fanout histogram
system.tol2bus.snoop_fanout::1                     12      0.00%    100.00% # Request fanout histogram
system.tol2bus.snoop_fanout::2                      0      0.00%    100.00% # Request fanout histogram
system.tol2bus.snoop_fanout::3                      0      0.00%    100.00% # Request fanout histogram
system.tol2bus.snoop_fanout::4                      0      0.00%    100.00% # Request fanout histogram
system.tol2bus.snoop_fanout::overflows              0      0.00%    100.00% # Request fanout histogram
system.tol2bus.snoop_fanout::min_value              0                       # Request fanout histogram
system.tol2bus.snoop_fanout::max_value              1                       # Request fanout histogram
system.tol2bus.snoop_fanout::total             783024                       # Request fanout histogram
system.tol2bus.reqLayer0.occupancy         3123037000                       # Layer occupancy (ticks)
system.tol2bus.reqLayer0.utilization             12.2                       # Layer utilization (%)
system.tol2bus.respLayer0.occupancy           3307995                       # Layer occupancy (ticks)
system.tol2bus.respLayer0.utilization             0.0                       # Layer utilization (%)
system.tol2bus.respLayer1.occupancy        2345769000                       # Layer occupancy (ticks)
system.tol2bus.respLayer1.utilization             9.2                       # Layer utilization (%)

---------- End Simulation Statistics   ----------
