
---------- Begin Simulation Statistics ----------
sim_seconds                                  0.025683                       # Number of seconds simulated
sim_ticks                                 25683457000                       # Number of ticks simulated
final_tick                                25683457000                       # Number of ticks from beginning of simulation (restored from checkpoints and never reset)
sim_freq                                 1000000000000                       # Frequency of simulated ticks
host_inst_rate                                  73234                       # Simulator instruction rate (inst/s)
host_op_rate                                   120375                       # Simulator op (including micro ops) rate (op/s)
host_tick_rate                              151814132                       # Simulator tick rate (ticks/s)
host_mem_usage                                 677616                       # Number of bytes of host memory used
host_seconds                                   169.18                       # Real time elapsed on the host
sim_insts                                    12389443                       # Number of instructions simulated
sim_ops                                      20364675                       # Number of ops (including micro ops) simulated
system.voltage_domain.voltage                       1                       # Voltage in Volts
system.clk_domain.clock                          1000                       # Clock period in ticks
system.mem_ctrls.pwrStateResidencyTicks::UNDEFINED  25683457000                       # Cumulative time (in ticks) in various power states
system.mem_ctrls.bytes_read::.cpu.inst          69376                       # Number of bytes read from this memory
system.mem_ctrls.bytes_read::.cpu.data        1153280                       # Number of bytes read from this memory
system.mem_ctrls.bytes_read::total            1222656                       # Number of bytes read from this memory
system.mem_ctrls.bytes_inst_read::.cpu.inst        69376                       # Number of instructions bytes read from this memory
system.mem_ctrls.bytes_inst_read::total         69376                       # Number of instructions bytes read from this memory
system.mem_ctrls.num_reads::.cpu.inst            1084                       # Number of read requests responded to by this memory
system.mem_ctrls.num_reads::.cpu.data           18020                       # Number of read requests responded to by this memory
system.mem_ctrls.num_reads::total               19104                       # Number of read requests responded to by this memory
system.mem_ctrls.bw_read::.cpu.inst           2701194                       # Total read bandwidth from this memory (bytes/s)
system.mem_ctrls.bw_read::.cpu.data          44903612                       # Total read bandwidth from this memory (bytes/s)
system.mem_ctrls.bw_read::total              47604806                       # Total read bandwidth from this memory (bytes/s)
system.mem_ctrls.bw_inst_read::.cpu.inst      2701194                       # Instruction read bandwidth from this memory (bytes/s)
system.mem_ctrls.bw_inst_read::total          2701194                       # Instruction read bandwidth from this memory (bytes/s)
system.mem_ctrls.bw_total::.cpu.inst          2701194                       # Total bandwidth to/from this memory (bytes/s)
system.mem_ctrls.bw_total::.cpu.data         44903612                       # Total bandwidth to/from this memory (bytes/s)
system.mem_ctrls.bw_total::total             47604806                       # Total bandwidth to/from this memory (bytes/s)
system.mem_ctrls.avgPriority_.cpu.inst::samples      1084.00                       # Average QoS priority value for accepted requests
system.mem_ctrls.avgPriority_.cpu.data::samples     18020.00                       # Average QoS priority value for accepted requests
system.mem_ctrls.priorityMinLatency      0.000000018750                       # per QoS priority minimum request to response latency (s)
system.mem_ctrls.priorityMaxLatency      0.000001099750                       # per QoS priority maximum request to response latency (s)
system.mem_ctrls.numReadWriteTurnArounds            0                       # Number of turnarounds from READ to WRITE
system.mem_ctrls.numWriteReadTurnArounds            0                       # Number of turnarounds from WRITE to READ
system.mem_ctrls.numStayReadState               38643                       # Number of times bus staying in READ state
system.mem_ctrls.numStayWriteState                  0                       # Number of times bus staying in WRITE state
system.mem_ctrls.readReqs                       19104                       # Number of read requests accepted
system.mem_ctrls.writeReqs                          0                       # Number of write requests accepted
system.mem_ctrls.readBursts                     19104                       # Number of DRAM read bursts, including those serviced by the write queue
system.mem_ctrls.writeBursts                        0                       # Number of DRAM write bursts, including those merged in the write queue
system.mem_ctrls.bytesReadDRAM                1222656                       # Total number of bytes read from DRAM
system.mem_ctrls.bytesReadWrQ                       0                       # Total number of bytes read from write queue
system.mem_ctrls.bytesWritten                       0                       # Total number of bytes written to DRAM
system.mem_ctrls.bytesReadSys                 1222656                       # Total read bytes from the system interface side
system.mem_ctrls.bytesWrittenSys                    0                       # Total written bytes from the system interface side
system.mem_ctrls.servicedByWrQ                      0                       # Number of DRAM read bursts serviced by the write queue
system.mem_ctrls.mergedWrBursts                     0                       # Number of DRAM write bursts merged with an existing one
system.mem_ctrls.neitherReadNorWriteReqs            0                       # Number of requests that are neither read nor write
system.mem_ctrls.perBankRdBursts::0              1230                       # Per bank write bursts
system.mem_ctrls.perBankRdBursts::1              1187                       # Per bank write bursts
system.mem_ctrls.perBankRdBursts::2              1216                       # Per bank write bursts
system.mem_ctrls.perBankRdBursts::3              1260                       # Per bank write bursts
system.mem_ctrls.perBankRdBursts::4              1183                       # Per bank write bursts
system.mem_ctrls.perBankRdBursts::5              1069                       # Per bank write bursts
system.mem_ctrls.perBankRdBursts::6              1101                       # Per bank write bursts
system.mem_ctrls.perBankRdBursts::7              1091                       # Per bank write bursts
system.mem_ctrls.perBankRdBursts::8              1208                       # Per bank write bursts
system.mem_ctrls.perBankRdBursts::9              1249                       # Per bank write bursts
system.mem_ctrls.perBankRdBursts::10             1244                       # Per bank write bursts
system.mem_ctrls.perBankRdBursts::11             1190                       # Per bank write bursts
system.mem_ctrls.perBankRdBursts::12             1168                       # Per bank write bursts
system.mem_ctrls.perBankRdBursts::13             1255                       # Per bank write bursts
system.mem_ctrls.perBankRdBursts::14             1214                       # Per bank write bursts
system.mem_ctrls.perBankRdBursts::15             1239                       # Per bank write bursts
system.mem_ctrls.perBankWrBursts::0                 0                       # Per bank write bursts
system.mem_ctrls.perBankWrBursts::1                 0                       # Per bank write bursts
system.mem_ctrls.perBankWrBursts::2                 0                       # Per bank write bursts
system.mem_ctrls.perBankWrBursts::3                 0                       # Per bank write bursts
system.mem_ctrls.perBankWrBursts::4                 0                       # Per bank write bursts
system.mem_ctrls.perBankWrBursts::5                 0                       # Per bank write bursts
system.mem_ctrls.perBankWrBursts::6                 0                       # Per bank write bursts
system.mem_ctrls.perBankWrBursts::7                 0                       # Per bank write bursts
system.mem_ctrls.perBankWrBursts::8                 0                       # Per bank write bursts
system.mem_ctrls.perBankWrBursts::9                 0                       # Per bank write bursts
system.mem_ctrls.perBankWrBursts::10                0                       # Per bank write bursts
system.mem_ctrls.perBankWrBursts::11                0                       # Per bank write bursts
system.mem_ctrls.perBankWrBursts::12                0                       # Per bank write bursts
system.mem_ctrls.perBankWrBursts::13                0                       # Per bank write bursts
system.mem_ctrls.perBankWrBursts::14                0                       # Per bank write bursts
system.mem_ctrls.perBankWrBursts::15                0                       # Per bank write bursts
system.mem_ctrls.numRdRetry                         0                       # Number of times read queue was full causing retry
system.mem_ctrls.numWrRetry                         0                       # Number of times write queue was full causing retry
system.mem_ctrls.totGap                   25683345000                       # Total gap between requests
system.mem_ctrls.readPktSize::0                     0                       # Read request sizes (log2)
system.mem_ctrls.readPktSize::1                     0                       # Read request sizes (log2)
system.mem_ctrls.readPktSize::2                     0                       # Read request sizes (log2)
system.mem_ctrls.readPktSize::3                     0                       # Read request sizes (log2)
system.mem_ctrls.readPktSize::4                     0                       # Read request sizes (log2)
system.mem_ctrls.readPktSize::5                     0                       # Read request sizes (log2)
system.mem_ctrls.readPktSize::6                 19104                       # Read request sizes (log2)
system.mem_ctrls.writePktSize::0                    0                       # Write request sizes (log2)
system.mem_ctrls.writePktSize::1                    0                       # Write request sizes (log2)
system.mem_ctrls.writePktSize::2                    0                       # Write request sizes (log2)
system.mem_ctrls.writePktSize::3                    0                       # Write request sizes (log2)
system.mem_ctrls.writePktSize::4                    0                       # Write request sizes (log2)
system.mem_ctrls.writePktSize::5                    0                       # Write request sizes (log2)
system.mem_ctrls.writePktSize::6                    0                       # Write request sizes (log2)
system.mem_ctrls.rdQLenPdf::0                   18026                       # What read queue length does an incoming req see
system.mem_ctrls.rdQLenPdf::1                     795                       # What read queue length does an incoming req see
system.mem_ctrls.rdQLenPdf::2                     256                       # What read queue length does an incoming req see
system.mem_ctrls.rdQLenPdf::3                      25                       # What read queue length does an incoming req see
system.mem_ctrls.rdQLenPdf::4                       2                       # What read queue length does an incoming req see
system.mem_ctrls.rdQLenPdf::5                       0                       # What read queue length does an incoming req see
system.mem_ctrls.rdQLenPdf::6                       0                       # What read queue length does an incoming req see
system.mem_ctrls.rdQLenPdf::7                       0                       # What read queue length does an incoming req see
system.mem_ctrls.rdQLenPdf::8                       0                       # What read queue length does an incoming req see
system.mem_ctrls.rdQLenPdf::9                       0                       # What read queue length does an incoming req see
system.mem_ctrls.rdQLenPdf::10                      0                       # What read queue length does an incoming req see
system.mem_ctrls.rdQLenPdf::11                      0                       # What read queue length does an incoming req see
system.mem_ctrls.rdQLenPdf::12                      0                       # What read queue length does an incoming req see
system.mem_ctrls.rdQLenPdf::13                      0                       # What read queue length does an incoming req see
system.mem_ctrls.rdQLenPdf::14                      0                       # What read queue length does an incoming req see
system.mem_ctrls.rdQLenPdf::15                      0                       # What read queue length does an incoming req see
system.mem_ctrls.rdQLenPdf::16                      0                       # What read queue length does an incoming req see
system.mem_ctrls.rdQLenPdf::17                      0                       # What read queue length does an incoming req see
system.mem_ctrls.rdQLenPdf::18                      0                       # What read queue length does an incoming req see
system.mem_ctrls.rdQLenPdf::19                      0                       # What read queue length does an incoming req see
system.mem_ctrls.rdQLenPdf::20                      0                       # What read queue length does an incoming req see
system.mem_ctrls.rdQLenPdf::21                      0                       # What read queue length does an incoming req see
system.mem_ctrls.rdQLenPdf::22                      0                       # What read queue length does an incoming req see
system.mem_ctrls.rdQLenPdf::23                      0                       # What read queue length does an incoming req see
system.mem_ctrls.rdQLenPdf::24                      0                       # What read queue length does an incoming req see
system.mem_ctrls.rdQLenPdf::25                      0                       # What read queue length does an incoming req see
system.mem_ctrls.rdQLenPdf::26                      0                       # What read queue length does an incoming req see
system.mem_ctrls.rdQLenPdf::27                      0                       # What read queue length does an incoming req see
system.mem_ctrls.rdQLenPdf::28                      0                       # What read queue length does an incoming req see
system.mem_ctrls.rdQLenPdf::29                      0                       # What read queue length does an incoming req see
system.mem_ctrls.rdQLenPdf::30                      0                       # What read queue length does an incoming req see
system.mem_ctrls.rdQLenPdf::31                      0                       # What read queue length does an incoming req see
system.mem_ctrls.wrQLenPdf::0                       0                       # What write queue length does an incoming req see
system.mem_ctrls.wrQLenPdf::1                       0                       # What write queue length does an incoming req see
system.mem_ctrls.wrQLenPdf::2                       0                       # What write queue length does an incoming req see
system.mem_ctrls.wrQLenPdf::3                       0                       # What write queue length does an incoming req see
system.mem_ctrls.wrQLenPdf::4                       0                       # What write queue length does an incoming req see
system.mem_ctrls.wrQLenPdf::5                       0                       # What write queue length does an incoming req see
system.mem_ctrls.wrQLenPdf::6                       0                       # What write queue length does an incoming req see
system.mem_ctrls.wrQLenPdf::7                       0                       # What write queue length does an incoming req see
system.mem_ctrls.wrQLenPdf::8                       0                       # What write queue length does an incoming req see
system.mem_ctrls.wrQLenPdf::9                       0                       # What write queue length does an incoming req see
system.mem_ctrls.wrQLenPdf::10                      0                       # What write queue length does an incoming req see
system.mem_ctrls.wrQLenPdf::11                      0                       # What write queue length does an incoming req see
system.mem_ctrls.wrQLenPdf::12                      0                       # What write queue length does an incoming req see
system.mem_ctrls.wrQLenPdf::13                      0                       # What write queue length does an incoming req see
system.mem_ctrls.wrQLenPdf::14                      0                       # What write queue length does an incoming req see
system.mem_ctrls.wrQLenPdf::15                      0                       # What write queue length does an incoming req see
system.mem_ctrls.wrQLenPdf::16                      0                       # What write queue length does an incoming req see
system.mem_ctrls.wrQLenPdf::17                      0                       # What write queue length does an incoming req see
system.mem_ctrls.wrQLenPdf::18                      0                       # What write queue length does an incoming req see
system.mem_ctrls.wrQLenPdf::19                      0                       # What write queue length does an incoming req see
system.mem_ctrls.wrQLenPdf::20                      0                       # What write queue length does an incoming req see
system.mem_ctrls.wrQLenPdf::21                      0                       # What write queue length does an incoming req see
system.mem_ctrls.wrQLenPdf::22                      0                       # What write queue length does an incoming req see
system.mem_ctrls.wrQLenPdf::23                      0                       # What write queue length does an incoming req see
system.mem_ctrls.wrQLenPdf::24                      0                       # What write queue length does an incoming req see
system.mem_ctrls.wrQLenPdf::25                      0                       # What write queue length does an incoming req see
system.mem_ctrls.wrQLenPdf::26                      0                       # What write queue length does an incoming req see
system.mem_ctrls.wrQLenPdf::27                      0                       # What write queue length does an incoming req see
system.mem_ctrls.wrQLenPdf::28                      0                       # What write queue length does an incoming req see
system.mem_ctrls.wrQLenPdf::29                      0                       # What write queue length does an incoming req see
system.mem_ctrls.wrQLenPdf::30                      0                       # What write queue length does an incoming req see
system.mem_ctrls.wrQLenPdf::31                      0                       # What write queue length does an incoming req see
system.mem_ctrls.wrQLenPdf::32                      0                       # What write queue length does an incoming req see
system.mem_ctrls.wrQLenPdf::33                      0                       # What write queue length does an incoming req see
system.mem_ctrls.wrQLenPdf::34                      0                       # What write queue length does an incoming req see
system.mem_ctrls.wrQLenPdf::35                      0                       # What write queue length does an incoming req see
system.mem_ctrls.wrQLenPdf::36                      0                       # What write queue length does an incoming req see
system.mem_ctrls.wrQLenPdf::37                      0                       # What write queue length does an incoming req see
system.mem_ctrls.wrQLenPdf::38                      0                       # What write queue length does an incoming req see
system.mem_ctrls.wrQLenPdf::39                      0                       # What write queue length does an incoming req see
system.mem_ctrls.wrQLenPdf::40                      0                       # What write queue length does an incoming req see
system.mem_ctrls.wrQLenPdf::41                      0                       # What write queue length does an incoming req see
system.mem_ctrls.wrQLenPdf::42                      0                       # What write queue length does an incoming req see
system.mem_ctrls.wrQLenPdf::43                      0                       # What write queue length does an incoming req see
system.mem_ctrls.wrQLenPdf::44                      0                       # What write queue length does an incoming req see
system.mem_ctrls.wrQLenPdf::45                      0                       # What write queue length does an incoming req see
system.mem_ctrls.wrQLenPdf::46                      0                       # What write queue length does an incoming req see
system.mem_ctrls.wrQLenPdf::47                      0                       # What write queue length does an incoming req see
system.mem_ctrls.wrQLenPdf::48                      0                       # What write queue length does an incoming req see
system.mem_ctrls.wrQLenPdf::49                      0                       # What write queue length does an incoming req see
system.mem_ctrls.wrQLenPdf::50                      0                       # What write queue length does an incoming req see
system.mem_ctrls.wrQLenPdf::51                      0                       # What write queue length does an incoming req see
system.mem_ctrls.wrQLenPdf::52                      0                       # What write queue length does an incoming req see
system.mem_ctrls.wrQLenPdf::53                      0                       # What write queue length does an incoming req see
system.mem_ctrls.wrQLenPdf::54                      0                       # What write queue length does an incoming req see
system.mem_ctrls.wrQLenPdf::55                      0                       # What write queue length does an incoming req see
system.mem_ctrls.wrQLenPdf::56                      0                       # What write queue length does an incoming req see
system.mem_ctrls.wrQLenPdf::57                      0                       # What write queue length does an incoming req see
system.mem_ctrls.wrQLenPdf::58                      0                       # What write queue length does an incoming req see
system.mem_ctrls.wrQLenPdf::59                      0                       # What write queue length does an incoming req see
system.mem_ctrls.wrQLenPdf::60                      0                       # What write queue length does an incoming req see
system.mem_ctrls.wrQLenPdf::61                      0                       # What write queue length does an incoming req see
system.mem_ctrls.wrQLenPdf::62                      0                       # What write queue length does an incoming req see
system.mem_ctrls.wrQLenPdf::63                      0                       # What write queue length does an incoming req see
system.mem_ctrls.bytesPerActivate::samples         1692                       # Bytes accessed per row activation
system.mem_ctrls.bytesPerActivate::mean    721.702128                       # Bytes accessed per row activation
system.mem_ctrls.bytesPerActivate::gmean   537.480098                       # Bytes accessed per row activation
system.mem_ctrls.bytesPerActivate::stdev   372.383499                       # Bytes accessed per row activation
system.mem_ctrls.bytesPerActivate::0-127          184     10.87%     10.87% # Bytes accessed per row activation
system.mem_ctrls.bytesPerActivate::128-255          142      8.39%     19.27% # Bytes accessed per row activation
system.mem_ctrls.bytesPerActivate::256-383          103      6.09%     25.35% # Bytes accessed per row activation
system.mem_ctrls.bytesPerActivate::384-511           58      3.43%     28.78% # Bytes accessed per row activation
system.mem_ctrls.bytesPerActivate::512-639           57      3.37%     32.15% # Bytes accessed per row activation
system.mem_ctrls.bytesPerActivate::640-767           73      4.31%     36.47% # Bytes accessed per row activation
system.mem_ctrls.bytesPerActivate::768-895           31      1.83%     38.30% # Bytes accessed per row activation
system.mem_ctrls.bytesPerActivate::896-1023          272     16.08%     54.37% # Bytes accessed per row activation
system.mem_ctrls.bytesPerActivate::1024-1151          772     45.63%    100.00% # Bytes accessed per row activation
system.mem_ctrls.bytesPerActivate::total         1692                       # Bytes accessed per row activation
system.mem_ctrls.masterReadBytes::.cpu.inst        69376                       # Per-master bytes read from memory
system.mem_ctrls.masterReadBytes::.cpu.data      1153280                       # Per-master bytes read from memory
system.mem_ctrls.masterReadRate::.cpu.inst 2701194.002037965693                       # Per-master bytes read from memory rate (Bytes/sec)
system.mem_ctrls.masterReadRate::.cpu.data 44903612.469302713871                       # Per-master bytes read from memory rate (Bytes/sec)
system.mem_ctrls.masterReadAccesses::.cpu.inst         1084                       # Per-master read serviced memory accesses
system.mem_ctrls.masterReadAccesses::.cpu.data        18020                       # Per-master read serviced memory accesses
system.mem_ctrls.masterReadTotalLat::.cpu.inst     36502750                       # Per-master read total memory access latency
system.mem_ctrls.masterReadTotalLat::.cpu.data    569055000                       # Per-master read total memory access latency
system.mem_ctrls.masterReadAvgLat::.cpu.inst     33674.12                       # Per-master read average memory access latency
system.mem_ctrls.masterReadAvgLat::.cpu.data     31579.08                       # Per-master read average memory access latency
system.mem_ctrls.totQLat                    247357750                       # Total ticks spent queuing
system.mem_ctrls.totMemAccLat               605557750                       # Total ticks spent from burst creation until serviced by the DRAM
system.mem_ctrls.totBusLat                   95520000                       # Total ticks spent in databus transfers
system.mem_ctrls.avgQLat                     12947.96                       # Average queueing delay per DRAM burst
system.mem_ctrls.avgBusLat                    5000.00                       # Average bus latency per DRAM burst
system.mem_ctrls.avgMemAccLat                31697.96                       # Average memory access latency per DRAM burst
system.mem_ctrls.avgRdBW                        47.60                       # Average DRAM read bandwidth in MiByte/s
system.mem_ctrls.avgWrBW                         0.00                       # Average achieved write bandwidth in MiByte/s
system.mem_ctrls.avgRdBWSys                     47.60                       # Average system read bandwidth in MiByte/s
system.mem_ctrls.avgWrBWSys                      0.00                       # Average system write bandwidth in MiByte/s
system.mem_ctrls.peakBW                      12800.00                       # Theoretical peak bandwidth in MiByte/s
system.mem_ctrls.busUtil                         0.37                       # Data bus utilization in percentage
system.mem_ctrls.busUtilRead                     0.37                       # Data bus utilization in percentage for reads
system.mem_ctrls.busUtilWrite                    0.00                       # Data bus utilization in percentage for writes
system.mem_ctrls.avgRdQLen                       1.09                       # Average read queue length when enqueuing
system.mem_ctrls.avgWrQLen                       0.00                       # Average write queue length when enqueuing
system.mem_ctrls.readRowHits                    17402                       # Number of row buffer hits during reads
system.mem_ctrls.writeRowHits                       0                       # Number of row buffer hits during writes
system.mem_ctrls.readRowHitRate                 91.09                       # Row buffer hit rate for reads
system.mem_ctrls.writeRowHitRate                  nan                       # Row buffer hit rate for writes
system.mem_ctrls.avgGap                    1344396.20                       # Average gap between requests
system.mem_ctrls.pageHitRate                    91.09                       # Row buffer hit rate, read and write combined
system.mem_ctrls_0.actEnergy                  6190380                       # Energy for activate commands per rank (pJ)
system.mem_ctrls_0.preEnergy                  3263700                       # Energy for precharge commands per rank (pJ)
system.mem_ctrls_0.readEnergy                66666180                       # Energy for read commands per rank (pJ)
system.mem_ctrls_0.writeEnergy                      0                       # Energy for write commands per rank (pJ)
system.mem_ctrls_0.refreshEnergy         136450080.000000                       # Energy for refresh commands per rank (pJ)
system.mem_ctrls_0.actBackEnergy            134256660                       # Energy for active background per rank (pJ)
system.mem_ctrls_0.preBackEnergy              6466080                       # Energy for precharge background per rank (pJ)
system.mem_ctrls_0.actPowerDownEnergy       587116530                       # Energy for active power-down per rank (pJ)
system.mem_ctrls_0.prePowerDownEnergy        52771680                       # Energy for precharge power-down per rank (pJ)
system.mem_ctrls_0.selfRefreshEnergy       5753962980                       # Energy for self refresh per rank (pJ)
system.mem_ctrls_0.totalEnergy             6747144270                       # Total energy per rank (pJ)
system.mem_ctrls_0.averagePower            262.703898                       # Core power per rank (mW)
system.mem_ctrls_0.totalIdleTime          25372159750                       # Total Idle time Per DRAM Rank
system.mem_ctrls_0.memoryStateTime::IDLE      6485000                       # Time in different power states
system.mem_ctrls_0.memoryStateTime::REF      57720000                       # Time in different power states
system.mem_ctrls_0.memoryStateTime::SREF  23947234000                       # Time in different power states
system.mem_ctrls_0.memoryStateTime::PRE_PDN    137421000                       # Time in different power states
system.mem_ctrls_0.memoryStateTime::ACT     247028000                       # Time in different power states
system.mem_ctrls_0.memoryStateTime::ACT_PDN   1287569000                       # Time in different power states
system.mem_ctrls_1.actEnergy                  5961900                       # Energy for activate commands per rank (pJ)
system.mem_ctrls_1.preEnergy                  3157440                       # Energy for precharge commands per rank (pJ)
system.mem_ctrls_1.readEnergy                69736380                       # Energy for read commands per rank (pJ)
system.mem_ctrls_1.writeEnergy                      0                       # Energy for write commands per rank (pJ)
system.mem_ctrls_1.refreshEnergy         145669680.000000                       # Energy for refresh commands per rank (pJ)
system.mem_ctrls_1.actBackEnergy            140702790                       # Energy for active background per rank (pJ)
system.mem_ctrls_1.preBackEnergy              7637280                       # Energy for precharge background per rank (pJ)
system.mem_ctrls_1.actPowerDownEnergy       632670360                       # Energy for active power-down per rank (pJ)
system.mem_ctrls_1.prePowerDownEnergy        51849600                       # Energy for precharge power-down per rank (pJ)
system.mem_ctrls_1.selfRefreshEnergy       5724782160                       # Energy for self refresh per rank (pJ)
system.mem_ctrls_1.totalEnergy             6782167590                       # Total energy per rank (pJ)
system.mem_ctrls_1.averagePower            264.067551                       # Core power per rank (mW)
system.mem_ctrls_1.totalIdleTime          25354799250                       # Total Idle time Per DRAM Rank
system.mem_ctrls_1.memoryStateTime::IDLE      9020000                       # Time in different power states
system.mem_ctrls_1.memoryStateTime::REF      61620000                       # Time in different power states
system.mem_ctrls_1.memoryStateTime::SREF  23832549250                       # Time in different power states
system.mem_ctrls_1.memoryStateTime::PRE_PDN    135016000                       # Time in different power states
system.mem_ctrls_1.memoryStateTime::ACT     257810500                       # Time in different power states
system.mem_ctrls_1.memoryStateTime::ACT_PDN   1387441250                       # Time in different power states
system.pwrStateResidencyTicks::UNDEFINED  25683457000                       # Cumulative time (in ticks) in various power states
system.cpu.branchPred.lookups                 2356050                       # Number of BP lookups
system.cpu.branchPred.condPredicted           2356050                       # Number of conditional branches predicted
system.cpu.branchPred.condIncorrect              8434                       # Number of conditional branches incorrect
system.cpu.branchPred.BTBLookups              2338562                       # Number of BTB lookups
system.cpu.branchPred.BTBHits                       0                       # Number of BTB hits
system.cpu.branchPred.BTBCorrect                    0                       # Number of correct BTB predictions (this stat may not work properly.
system.cpu.branchPred.BTBHitPct              0.000000                       # BTB Hit Percentage
system.cpu.branchPred.usedRAS                    1978                       # Number of times the RAS was used to get a target.
system.cpu.branchPred.RASInCorrect                428                       # Number of incorrect RAS predictions.
system.cpu.branchPred.indirectLookups         2338562                       # Number of indirect predictor lookups.
system.cpu.branchPred.indirectHits            2293909                       # Number of indirect target hits.
system.cpu.branchPred.indirectMisses            44653                       # Number of indirect misses.
system.cpu.branchPredindirectMispredicted         4731                       # Number of mispredicted indirect branches.
system.cpu_voltage_domain.voltage                   1                       # Voltage in Volts
system.cpu_clk_domain.clock                      1000                       # Clock period in ticks
system.cpu.dtb.walker.pwrStateResidencyTicks::UNDEFINED  25683457000                       # Cumulative time (in ticks) in various power states
system.cpu.dtb.rdAccesses                      192564                       # TLB accesses on read requests
system.cpu.dtb.wrAccesses                     2212997                       # TLB accesses on write requests
system.cpu.dtb.rdMisses                          2272                       # TLB misses on read requests
system.cpu.dtb.wrMisses                         41086                       # TLB misses on write requests
system.cpu.apic_clk_domain.clock                16000                       # Clock period in ticks
system.cpu.interrupts.pwrStateResidencyTicks::UNDEFINED  25683457000                       # Cumulative time (in ticks) in various power states
system.cpu.itb.walker.pwrStateResidencyTicks::UNDEFINED  25683457000                       # Cumulative time (in ticks) in various power states
system.cpu.itb.rdAccesses                           0                       # TLB accesses on read requests
system.cpu.itb.wrAccesses                      172355                       # TLB accesses on write requests
system.cpu.itb.rdMisses                             0                       # TLB misses on read requests
system.cpu.itb.wrMisses                           157                       # TLB misses on write requests
system.cpu.workload.numSyscalls                    32                       # Number of system calls
system.cpu.pwrStateResidencyTicks::ON     25683457000                       # Cumulative time (in ticks) in various power states
system.cpu.numCycles                         25683458                       # number of cpu cycles simulated
system.cpu.numWorkItemsStarted                      0                       # number of work items this cpu started
system.cpu.numWorkItemsCompleted                    0                       # number of work items this cpu completed
system.cpu.fetch.icacheStallCycles             200275                       # Number of cycles fetch is stalled on an Icache miss
system.cpu.fetch.Insts                       12672983                       # Number of instructions fetch has processed
system.cpu.fetch.Branches                     2356050                       # Number of branches that fetch encountered
system.cpu.fetch.predictedBranches            2295887                       # Number of branches that fetch has predicted taken
system.cpu.fetch.Cycles                      25426587                       # Number of cycles fetch has run and was not squashing or blocked
system.cpu.fetch.SquashCycles                   17008                       # Number of cycles fetch has spent squashing
system.cpu.fetch.TlbCycles                        106                       # Number of cycles fetch has spent waiting for tlb
system.cpu.fetch.MiscStallCycles                   37                       # Number of cycles fetch has spent waiting on interrupts, or bad addresses, or out of MSHRs
system.cpu.fetch.PendingTrapStallCycles           404                       # Number of stall cycles due to pending traps
system.cpu.fetch.PendingQuiesceStallCycles           14                       # Number of stall cycles due to pending quiesce instructions
system.cpu.fetch.IcacheWaitRetryStallCycles           30                       # Number of stall cycles due to full MSHR
system.cpu.fetch.CacheLines                    172294                       # Number of cache lines fetched
system.cpu.fetch.IcacheSquashes                  2423                       # Number of outstanding Icache misses that were squashed
system.cpu.fetch.rateDist::samples           25635957                       # Number of instructions fetched each cycle (Total)
system.cpu.fetch.rateDist::mean              0.815107                       # Number of instructions fetched each cycle (Total)
system.cpu.fetch.rateDist::stdev             2.362144                       # Number of instructions fetched each cycle (Total)
system.cpu.fetch.rateDist::underflows               0      0.00%      0.00% # Number of instructions fetched each cycle (Total)
system.cpu.fetch.rateDist::0                 22792448     88.91%     88.91% # Number of instructions fetched each cycle (Total)
system.cpu.fetch.rateDist::1                     8506      0.03%     88.94% # Number of instructions fetched each cycle (Total)
system.cpu.fetch.rateDist::2                     4081      0.02%     88.96% # Number of instructions fetched each cycle (Total)
system.cpu.fetch.rateDist::3                    70334      0.27%     89.23% # Number of instructions fetched each cycle (Total)
system.cpu.fetch.rateDist::4                   295379      1.15%     90.38% # Number of instructions fetched each cycle (Total)
system.cpu.fetch.rateDist::5                    69825      0.27%     90.66% # Number of instructions fetched each cycle (Total)
system.cpu.fetch.rateDist::6                    10067      0.04%     90.70% # Number of instructions fetched each cycle (Total)
system.cpu.fetch.rateDist::7                     5208      0.02%     90.72% # Number of instructions fetched each cycle (Total)
system.cpu.fetch.rateDist::8                  2380109      9.28%    100.00% # Number of instructions fetched each cycle (Total)
system.cpu.fetch.rateDist::overflows                0      0.00%    100.00% # Number of instructions fetched each cycle (Total)
system.cpu.fetch.rateDist::min_value                0                       # Number of instructions fetched each cycle (Total)
system.cpu.fetch.rateDist::max_value                8                       # Number of instructions fetched each cycle (Total)
system.cpu.fetch.rateDist::total             25635957                       # Number of instructions fetched each cycle (Total)
system.cpu.fetch.branchRate                  0.091734                       # Number of branch fetches per cycle
system.cpu.fetch.rate                        0.493430                       # Number of inst fetches per cycle
system.cpu.decode.IdleCycles                   902074                       # Number of cycles decode is idle
system.cpu.decode.BlockedCycles              22097787                       # Number of cycles decode is blocked
system.cpu.decode.RunCycles                    724463                       # Number of cycles decode is running
system.cpu.decode.UnblockCycles               1903129                       # Number of cycles decode is unblocking
system.cpu.decode.SquashCycles                   8504                       # Number of cycles decode is squashing
system.cpu.decode.DecodedInsts               20807342                       # Number of instructions handled by decode
system.cpu.rename.SquashCycles                   8504                       # Number of cycles rename is squashing
system.cpu.rename.IdleCycles                  1341605                       # Number of cycles rename is idle
system.cpu.rename.BlockCycles                 7129869                       # Number of cycles rename is blocking
system.cpu.rename.serializeStallCycles           2029                       # count of cycles rename stalled for serializing inst
system.cpu.rename.RunCycles                   2170440                       # Number of cycles rename is running
system.cpu.rename.UnblockCycles              14983510                       # Number of cycles rename is unblocking
system.cpu.rename.RenamedInsts               20765769                       # Number of instructions processed by rename
system.cpu.rename.ROBFullEvents                  1745                       # Number of times rename has blocked due to ROB full
system.cpu.rename.IQFullEvents                  56990                       # Number of times rename has blocked due to IQ full
system.cpu.rename.LQFullEvents                    246                       # Number of times rename has blocked due to LQ full
system.cpu.rename.SQFullEvents               14483431                       # Number of times rename has blocked due to SQ full
system.cpu.rename.RenamedOperands            30049991                       # Number of destination operands rename has renamed
system.cpu.rename.RenameLookups              51379945                       # Number of register rename lookups that rename has made
system.cpu.rename.int_rename_lookups         28128657                       # Number of integer rename lookups
system.cpu.rename.fp_rename_lookups           4392532                       # Number of floating rename lookups
system.cpu.rename.CommittedMaps              29547072                       # Number of HB maps that are committed
system.cpu.rename.UndoneMaps                   502919                       # Number of HB maps that are undone due to squashing
system.cpu.rename.serializingInsts                 96                       # count of serializing insts renamed
system.cpu.rename.tempSerializingInsts             67                       # count of temporary serializing insts renamed
system.cpu.rename.skidInsts                   9301264                       # count of insts added to the skid buffer
system.cpu.memDep0.insertedLoads               204639                       # Number of loads inserted to the mem dependence unit.
system.cpu.memDep0.insertedStores             2218031                       # Number of stores inserted to the mem dependence unit.
system.cpu.memDep0.conflictingLoads              1104                       # Number of conflicting loads.
system.cpu.memDep0.conflictingStores              366                       # Number of conflicting stores.
system.cpu.iq.iqInstsAdded                   20695669                       # Number of instructions added to the IQ (excludes non-spec)
system.cpu.iq.iqNonSpecInstsAdded                 137                       # Number of non-speculative instructions added to the IQ
system.cpu.iq.iqInstsIssued                  20593225                       # Number of instructions issued
system.cpu.iq.iqSquashedInstsIssued              2828                       # Number of squashed instructions issued
system.cpu.iq.iqSquashedInstsExamined          331130                       # Number of squashed instructions iterated over during squash; mainly for profiling
system.cpu.iq.iqSquashedOperandsExamined       468656                       # Number of squashed operands that are examined and possibly removed from graph
system.cpu.iq.iqSquashedNonSpecRemoved             93                       # Number of squashed non-spec instructions that were removed
system.cpu.iq.issued_per_cycle::samples      25635957                       # Number of insts issued each cycle
system.cpu.iq.issued_per_cycle::mean         0.803295                       # Number of insts issued each cycle
system.cpu.iq.issued_per_cycle::stdev        1.809927                       # Number of insts issued each cycle
system.cpu.iq.issued_per_cycle::underflows            0      0.00%      0.00% # Number of insts issued each cycle
system.cpu.iq.issued_per_cycle::0            20340477     79.34%     79.34% # Number of insts issued each cycle
system.cpu.iq.issued_per_cycle::1              860501      3.36%     82.70% # Number of insts issued each cycle
system.cpu.iq.issued_per_cycle::2             1034022      4.03%     86.73% # Number of insts issued each cycle
system.cpu.iq.issued_per_cycle::3              209517      0.82%     87.55% # Number of insts issued each cycle
system.cpu.iq.issued_per_cycle::4              658464      2.57%     90.12% # Number of insts issued each cycle
system.cpu.iq.issued_per_cycle::5             1068229      4.17%     94.29% # Number of insts issued each cycle
system.cpu.iq.issued_per_cycle::6             1253573      4.89%     99.18% # Number of insts issued each cycle
system.cpu.iq.issued_per_cycle::7              149702      0.58%     99.76% # Number of insts issued each cycle
system.cpu.iq.issued_per_cycle::8               61472      0.24%    100.00% # Number of insts issued each cycle
system.cpu.iq.issued_per_cycle::overflows            0      0.00%    100.00% # Number of insts issued each cycle
system.cpu.iq.issued_per_cycle::min_value            0                       # Number of insts issued each cycle
system.cpu.iq.issued_per_cycle::max_value            8                       # Number of insts issued each cycle
system.cpu.iq.issued_per_cycle::total        25635957                       # Number of insts issued each cycle
system.cpu.iq.fu_full::No_OpClass                   0      0.00%      0.00% # attempts to use FU when none available
system.cpu.iq.fu_full::IntAlu                   50975     18.79%     18.79% # attempts to use FU when none available
system.cpu.iq.fu_full::IntMult                      0      0.00%     18.79% # attempts to use FU when none available
system.cpu.iq.fu_full::IntDiv                       0      0.00%     18.79% # attempts to use FU when none available
system.cpu.iq.fu_full::FloatAdd                     0      0.00%     18.79% # attempts to use FU when none available
system.cpu.iq.fu_full::FloatCmp                     0      0.00%     18.79% # attempts to use FU when none available
system.cpu.iq.fu_full::FloatCvt                     0      0.00%     18.79% # attempts to use FU when none available
system.cpu.iq.fu_full::FloatMult                    0      0.00%     18.79% # attempts to use FU when none available
system.cpu.iq.fu_full::FloatMultAcc                 0      0.00%     18.79% # attempts to use FU when none available
system.cpu.iq.fu_full::FloatDiv                     0      0.00%     18.79% # attempts to use FU when none available
system.cpu.iq.fu_full::FloatMisc                    0      0.00%     18.79% # attempts to use FU when none available
system.cpu.iq.fu_full::FloatSqrt                    0      0.00%     18.79% # attempts to use FU when none available
system.cpu.iq.fu_full::SimdAdd                      1      0.00%     18.79% # attempts to use FU when none available
system.cpu.iq.fu_full::SimdAddAcc                   0      0.00%     18.79% # attempts to use FU when none available
system.cpu.iq.fu_full::SimdAlu                  78130     28.80%     47.59% # attempts to use FU when none available
system.cpu.iq.fu_full::SimdCmp                      0      0.00%     47.59% # attempts to use FU when none available
system.cpu.iq.fu_full::SimdCvt                  78133     28.80%     76.39% # attempts to use FU when none available
system.cpu.iq.fu_full::SimdMisc                 62500     23.04%     99.42% # attempts to use FU when none available
system.cpu.iq.fu_full::SimdMult                     0      0.00%     99.42% # attempts to use FU when none available
system.cpu.iq.fu_full::SimdMultAcc                  0      0.00%     99.42% # attempts to use FU when none available
system.cpu.iq.fu_full::SimdShift                    0      0.00%     99.42% # attempts to use FU when none available
system.cpu.iq.fu_full::SimdShiftAcc                 0      0.00%     99.42% # attempts to use FU when none available
system.cpu.iq.fu_full::SimdSqrt                     0      0.00%     99.42% # attempts to use FU when none available
system.cpu.iq.fu_full::SimdFloatAdd                 0      0.00%     99.42% # attempts to use FU when none available
system.cpu.iq.fu_full::SimdFloatAlu                 0      0.00%     99.42% # attempts to use FU when none available
system.cpu.iq.fu_full::SimdFloatCmp                 0      0.00%     99.42% # attempts to use FU when none available
system.cpu.iq.fu_full::SimdFloatCvt                 0      0.00%     99.42% # attempts to use FU when none available
system.cpu.iq.fu_full::SimdFloatDiv                 0      0.00%     99.42% # attempts to use FU when none available
system.cpu.iq.fu_full::SimdFloatMisc                0      0.00%     99.42% # attempts to use FU when none available
system.cpu.iq.fu_full::SimdFloatMult                0      0.00%     99.42% # attempts to use FU when none available
system.cpu.iq.fu_full::SimdFloatMultAcc             0      0.00%     99.42% # attempts to use FU when none available
system.cpu.iq.fu_full::SimdFloatSqrt                0      0.00%     99.42% # attempts to use FU when none available
system.cpu.iq.fu_full::SimdAes                      0      0.00%     99.42% # attempts to use FU when none available
system.cpu.iq.fu_full::SimdAesMix                   0      0.00%     99.42% # attempts to use FU when none available
system.cpu.iq.fu_full::SimdSha1Hash                 0      0.00%     99.42% # attempts to use FU when none available
system.cpu.iq.fu_full::SimdSha1Hash2                0      0.00%     99.42% # attempts to use FU when none available
system.cpu.iq.fu_full::SimdSha256Hash               0      0.00%     99.42% # attempts to use FU when none available
system.cpu.iq.fu_full::SimdSha256Hash2              0      0.00%     99.42% # attempts to use FU when none available
system.cpu.iq.fu_full::SimdShaSigma2                0      0.00%     99.42% # attempts to use FU when none available
system.cpu.iq.fu_full::SimdShaSigma3                0      0.00%     99.42% # attempts to use FU when none available
system.cpu.iq.fu_full::MemRead                    985      0.36%     99.79% # attempts to use FU when none available
system.cpu.iq.fu_full::MemWrite                   507      0.19%     99.97% # attempts to use FU when none available
system.cpu.iq.fu_full::FloatMemRead                28      0.01%     99.98% # attempts to use FU when none available
system.cpu.iq.fu_full::FloatMemWrite               46      0.02%    100.00% # attempts to use FU when none available
system.cpu.iq.fu_full::IprAccess                    0      0.00%    100.00% # attempts to use FU when none available
system.cpu.iq.fu_full::InstPrefetch                 0      0.00%    100.00% # attempts to use FU when none available
system.cpu.iq.FU_type_0::No_OpClass              3932      0.02%      0.02% # Type of FU issued
system.cpu.iq.FU_type_0::IntAlu              16671918     80.96%     80.98% # Type of FU issued
system.cpu.iq.FU_type_0::IntMult                 1222      0.01%     80.98% # Type of FU issued
system.cpu.iq.FU_type_0::IntDiv                  1209      0.01%     80.99% # Type of FU issued
system.cpu.iq.FU_type_0::FloatAdd                 337      0.00%     80.99% # Type of FU issued
system.cpu.iq.FU_type_0::FloatCmp                   0      0.00%     80.99% # Type of FU issued
system.cpu.iq.FU_type_0::FloatCvt                   0      0.00%     80.99% # Type of FU issued
system.cpu.iq.FU_type_0::FloatMult                  0      0.00%     80.99% # Type of FU issued
system.cpu.iq.FU_type_0::FloatMultAcc               0      0.00%     80.99% # Type of FU issued
system.cpu.iq.FU_type_0::FloatDiv                   0      0.00%     80.99% # Type of FU issued
system.cpu.iq.FU_type_0::FloatMisc                  0      0.00%     80.99% # Type of FU issued
system.cpu.iq.FU_type_0::FloatSqrt                  0      0.00%     80.99% # Type of FU issued
system.cpu.iq.FU_type_0::SimdAdd               500516      2.43%     83.42% # Type of FU issued
system.cpu.iq.FU_type_0::SimdAddAcc                 0      0.00%     83.42% # Type of FU issued
system.cpu.iq.FU_type_0::SimdAlu               126111      0.61%     84.03% # Type of FU issued
system.cpu.iq.FU_type_0::SimdCmp                    6      0.00%     84.03% # Type of FU issued
system.cpu.iq.FU_type_0::SimdCvt               126277      0.61%     84.65% # Type of FU issued
system.cpu.iq.FU_type_0::SimdMisc              750706      3.65%     88.29% # Type of FU issued
system.cpu.iq.FU_type_0::SimdMult                   0      0.00%     88.29% # Type of FU issued
system.cpu.iq.FU_type_0::SimdMultAcc                0      0.00%     88.29% # Type of FU issued
system.cpu.iq.FU_type_0::SimdShift                368      0.00%     88.29% # Type of FU issued
system.cpu.iq.FU_type_0::SimdShiftAcc               0      0.00%     88.29% # Type of FU issued
system.cpu.iq.FU_type_0::SimdSqrt                   0      0.00%     88.29% # Type of FU issued
system.cpu.iq.FU_type_0::SimdFloatAdd               0      0.00%     88.29% # Type of FU issued
system.cpu.iq.FU_type_0::SimdFloatAlu               0      0.00%     88.29% # Type of FU issued
system.cpu.iq.FU_type_0::SimdFloatCmp               0      0.00%     88.29% # Type of FU issued
system.cpu.iq.FU_type_0::SimdFloatCvt               0      0.00%     88.29% # Type of FU issued
system.cpu.iq.FU_type_0::SimdFloatDiv               0      0.00%     88.29% # Type of FU issued
system.cpu.iq.FU_type_0::SimdFloatMisc              0      0.00%     88.29% # Type of FU issued
system.cpu.iq.FU_type_0::SimdFloatMult              0      0.00%     88.29% # Type of FU issued
system.cpu.iq.FU_type_0::SimdFloatMultAcc            0      0.00%     88.29% # Type of FU issued
system.cpu.iq.FU_type_0::SimdFloatSqrt              0      0.00%     88.29% # Type of FU issued
system.cpu.iq.FU_type_0::SimdAes                    0      0.00%     88.29% # Type of FU issued
system.cpu.iq.FU_type_0::SimdAesMix                 0      0.00%     88.29% # Type of FU issued
system.cpu.iq.FU_type_0::SimdSha1Hash               0      0.00%     88.29% # Type of FU issued
system.cpu.iq.FU_type_0::SimdSha1Hash2              0      0.00%     88.29% # Type of FU issued
system.cpu.iq.FU_type_0::SimdSha256Hash             0      0.00%     88.29% # Type of FU issued
system.cpu.iq.FU_type_0::SimdSha256Hash2            0      0.00%     88.29% # Type of FU issued
system.cpu.iq.FU_type_0::SimdShaSigma2              0      0.00%     88.29% # Type of FU issued
system.cpu.iq.FU_type_0::SimdShaSigma3              0      0.00%     88.29% # Type of FU issued
system.cpu.iq.FU_type_0::MemRead                69521      0.34%     88.63% # Type of FU issued
system.cpu.iq.FU_type_0::MemWrite             2213529     10.75%     99.38% # Type of FU issued
system.cpu.iq.FU_type_0::FloatMemRead          127104      0.62%    100.00% # Type of FU issued
system.cpu.iq.FU_type_0::FloatMemWrite            469      0.00%    100.00% # Type of FU issued
system.cpu.iq.FU_type_0::IprAccess                  0      0.00%    100.00% # Type of FU issued
system.cpu.iq.FU_type_0::InstPrefetch               0      0.00%    100.00% # Type of FU issued
system.cpu.iq.FU_type_0::total               20593225                       # Type of FU issued
system.cpu.iq.rate                           0.801809                       # Inst issue rate
system.cpu.iq.fu_busy_cnt                      271305                       # FU busy when requested
system.cpu.iq.fu_busy_rate                   0.013174                       # FU busy rate (busy events/executed inst)
system.cpu.iq.int_inst_queue_reads           62863595                       # Number of integer instruction queue reads
system.cpu.iq.int_inst_queue_writes          19011604                       # Number of integer instruction queue writes
system.cpu.iq.int_inst_queue_wakeup_accesses     18554359                       # Number of integer instruction queue wakeup accesses
system.cpu.iq.fp_inst_queue_reads             4232945                       # Number of floating instruction queue reads
system.cpu.iq.fp_inst_queue_writes            2015379                       # Number of floating instruction queue writes
system.cpu.iq.fp_inst_queue_wakeup_accesses      2006232                       # Number of floating instruction queue wakeup accesses
system.cpu.iq.vec_inst_queue_reads                  0                       # Number of vector instruction queue reads
system.cpu.iq.vec_inst_queue_writes                 0                       # Number of vector instruction queue writes
system.cpu.iq.vec_inst_queue_wakeup_accesses            0                       # Number of vector instruction queue wakeup accesses
system.cpu.iq.int_alu_accesses               18634763                       # Number of integer alu accesses
system.cpu.iq.fp_alu_accesses                 2225835                       # Number of floating point alu accesses
system.cpu.iq.vec_alu_accesses                      0                       # Number of vector alu accesses
system.cpu.iew.lsq.thread0.forwLoads             2425                       # Number of loads that had data forwarded from stores
system.cpu.iew.lsq.thread0.invAddrLoads             0                       # Number of loads ignored due to an invalid address
system.cpu.iew.lsq.thread0.squashedLoads        43258                       # Number of loads squashed
system.cpu.iew.lsq.thread0.ignoredResponses           18                       # Number of memory responses ignored because the instruction is squashed
system.cpu.iew.lsq.thread0.memOrderViolation           50                       # Number of memory ordering violations
system.cpu.iew.lsq.thread0.squashedStores         9452                       # Number of stores squashed
system.cpu.iew.lsq.thread0.invAddrSwpfs             0                       # Number of software prefetches ignored due to an invalid address
system.cpu.iew.lsq.thread0.blockedLoads             0                       # Number of blocked loads due to partial load-store forwarding
system.cpu.iew.lsq.thread0.rescheduledLoads            3                       # Number of loads that were rescheduled
system.cpu.iew.lsq.thread0.cacheBlocked           213                       # Number of times an access to memory failed due to the cache being blocked
system.cpu.iew.iewIdleCycles                        0                       # Number of cycles IEW is idle
system.cpu.iew.iewSquashCycles                   8504                       # Number of cycles IEW is squashing
system.cpu.iew.iewBlockCycles                  339814                       # Number of cycles IEW is blocking
system.cpu.iew.iewUnblockCycles               6724603                       # Number of cycles IEW is unblocking
system.cpu.iew.iewDispatchedInsts            20695806                       # Number of instructions dispatched to IQ
system.cpu.iew.iewDispSquashedInsts               342                       # Number of squashed instructions skipped by dispatch
system.cpu.iew.iewDispLoadInsts                204639                       # Number of dispatched load instructions
system.cpu.iew.iewDispStoreInsts              2218031                       # Number of dispatched store instructions
system.cpu.iew.iewDispNonSpecInsts                 82                       # Number of dispatched non-speculative instructions
system.cpu.iew.iewIQFullEvents                    932                       # Number of times the IQ has become full, causing a stall
system.cpu.iew.iewLSQFullEvents               6723516                       # Number of times the LSQ has become full, causing a stall
system.cpu.iew.memOrderViolationEvents             50                       # Number of memory order violations
system.cpu.iew.predictedTakenIncorrect           2280                       # Number of branches that were predicted taken incorrectly
system.cpu.iew.predictedNotTakenIncorrect         8615                       # Number of branches that were predicted not taken incorrectly
system.cpu.iew.branchMispredicts                10895                       # Number of branch mispredicts detected at execute
system.cpu.iew.iewExecutedInsts              20574273                       # Number of executed instructions
system.cpu.iew.iewExecLoadInsts                192495                       # Number of load instructions executed
system.cpu.iew.iewExecSquashedInsts             18952                       # Number of squashed instructions skipped in execute
system.cpu.iew.exec_swp                             0                       # number of swp insts executed
system.cpu.iew.exec_nop                             0                       # number of nop insts executed
system.cpu.iew.exec_refs                      2405487                       # number of memory reference insts executed
system.cpu.iew.exec_branches                  2306578                       # Number of branches executed
system.cpu.iew.exec_stores                    2212992                       # Number of stores executed
system.cpu.iew.exec_rate                     0.801071                       # Inst execution rate
system.cpu.iew.wb_sent                       20566283                       # cumulative count of insts sent to commit
system.cpu.iew.wb_count                      20560591                       # cumulative count of insts written-back
system.cpu.iew.wb_producers                  11833520                       # num instructions producing a value
system.cpu.iew.wb_consumers                  17973851                       # num instructions consuming a value
system.cpu.iew.wb_rate                       0.800538                       # insts written-back per cycle
system.cpu.iew.wb_fanout                     0.658374                       # average fanout of values written-back
system.cpu.commit.commitSquashedInsts          332362                       # The number of squashed insts skipped by commit
system.cpu.commit.commitNonSpecStalls              44                       # The number of times commit has been forced to stall to communicate backwards
system.cpu.commit.branchMispredicts              8468                       # The number of times a branch was mispredicted
system.cpu.commit.committed_per_cycle::samples     25586486                       # Number of insts commited each cycle
system.cpu.commit.committed_per_cycle::mean     0.795915                       # Number of insts commited each cycle
system.cpu.commit.committed_per_cycle::stdev     1.868022                       # Number of insts commited each cycle
system.cpu.commit.committed_per_cycle::underflows            0      0.00%      0.00% # Number of insts commited each cycle
system.cpu.commit.committed_per_cycle::0     20327089     79.44%     79.44% # Number of insts commited each cycle
system.cpu.commit.committed_per_cycle::1       793159      3.10%     82.54% # Number of insts commited each cycle
system.cpu.commit.committed_per_cycle::2      1007894      3.94%     86.48% # Number of insts commited each cycle
system.cpu.commit.committed_per_cycle::3      1066517      4.17%     90.65% # Number of insts commited each cycle
system.cpu.commit.committed_per_cycle::4        37929      0.15%     90.80% # Number of insts commited each cycle
system.cpu.commit.committed_per_cycle::5      1529452      5.98%     96.78% # Number of insts commited each cycle
system.cpu.commit.committed_per_cycle::6        18560      0.07%     96.85% # Number of insts commited each cycle
system.cpu.commit.committed_per_cycle::7         1247      0.00%     96.86% # Number of insts commited each cycle
system.cpu.commit.committed_per_cycle::8       804639      3.14%    100.00% # Number of insts commited each cycle
system.cpu.commit.committed_per_cycle::overflows            0      0.00%    100.00% # Number of insts commited each cycle
system.cpu.commit.committed_per_cycle::min_value            0                       # Number of insts commited each cycle
system.cpu.commit.committed_per_cycle::max_value            8                       # Number of insts commited each cycle
system.cpu.commit.committed_per_cycle::total     25586486                       # Number of insts commited each cycle
system.cpu.commit.committedInsts             12389443                       # Number of instructions committed
system.cpu.commit.committedOps               20364675                       # Number of ops (including micro ops) committed
system.cpu.commit.swp_count                         0                       # Number of s/w prefetches committed
system.cpu.commit.refs                        2369960                       # Number of memory references committed
system.cpu.commit.loads                        161381                       # Number of loads committed
system.cpu.commit.membars                           8                       # Number of memory barriers committed
system.cpu.commit.branches                    2292533                       # Number of branches committed
system.cpu.commit.vec_insts                         0                       # Number of committed Vector instructions.
system.cpu.commit.fp_insts                    2003575                       # Number of committed floating point instructions.
system.cpu.commit.int_insts                  18486083                       # Number of committed integer instructions.
system.cpu.commit.function_calls                  665                       # Number of function calls committed.
system.cpu.commit.op_class_0::No_OpClass         1498      0.01%      0.01% # Class of committed instruction
system.cpu.commit.op_class_0::IntAlu         16488742     80.97%     80.97% # Class of committed instruction
system.cpu.commit.op_class_0::IntMult            1015      0.00%     80.98% # Class of committed instruction
system.cpu.commit.op_class_0::IntDiv             1142      0.01%     80.99% # Class of committed instruction
system.cpu.commit.op_class_0::FloatAdd             29      0.00%     80.99% # Class of committed instruction
system.cpu.commit.op_class_0::FloatCmp              0      0.00%     80.99% # Class of committed instruction
system.cpu.commit.op_class_0::FloatCvt              0      0.00%     80.99% # Class of committed instruction
system.cpu.commit.op_class_0::FloatMult             0      0.00%     80.99% # Class of committed instruction
system.cpu.commit.op_class_0::FloatMultAcc            0      0.00%     80.99% # Class of committed instruction
system.cpu.commit.op_class_0::FloatDiv              0      0.00%     80.99% # Class of committed instruction
system.cpu.commit.op_class_0::FloatMisc             0      0.00%     80.99% # Class of committed instruction
system.cpu.commit.op_class_0::FloatSqrt             0      0.00%     80.99% # Class of committed instruction
system.cpu.commit.op_class_0::SimdAdd          500322      2.46%     83.44% # Class of committed instruction
system.cpu.commit.op_class_0::SimdAddAcc            0      0.00%     83.44% # Class of committed instruction
system.cpu.commit.op_class_0::SimdAlu          125493      0.62%     84.06% # Class of committed instruction
system.cpu.commit.op_class_0::SimdCmp               6      0.00%     84.06% # Class of committed instruction
system.cpu.commit.op_class_0::SimdCvt          125754      0.62%     84.68% # Class of committed instruction
system.cpu.commit.op_class_0::SimdMisc         750531      3.69%     88.36% # Class of committed instruction
system.cpu.commit.op_class_0::SimdMult              0      0.00%     88.36% # Class of committed instruction
system.cpu.commit.op_class_0::SimdMultAcc            0      0.00%     88.36% # Class of committed instruction
system.cpu.commit.op_class_0::SimdShift           183      0.00%     88.36% # Class of committed instruction
system.cpu.commit.op_class_0::SimdShiftAcc            0      0.00%     88.36% # Class of committed instruction
system.cpu.commit.op_class_0::SimdSqrt              0      0.00%     88.36% # Class of committed instruction
system.cpu.commit.op_class_0::SimdFloatAdd            0      0.00%     88.36% # Class of committed instruction
system.cpu.commit.op_class_0::SimdFloatAlu            0      0.00%     88.36% # Class of committed instruction
system.cpu.commit.op_class_0::SimdFloatCmp            0      0.00%     88.36% # Class of committed instruction
system.cpu.commit.op_class_0::SimdFloatCvt            0      0.00%     88.36% # Class of committed instruction
system.cpu.commit.op_class_0::SimdFloatDiv            0      0.00%     88.36% # Class of committed instruction
system.cpu.commit.op_class_0::SimdFloatMisc            0      0.00%     88.36% # Class of committed instruction
system.cpu.commit.op_class_0::SimdFloatMult            0      0.00%     88.36% # Class of committed instruction
system.cpu.commit.op_class_0::SimdFloatMultAcc            0      0.00%     88.36% # Class of committed instruction
system.cpu.commit.op_class_0::SimdFloatSqrt            0      0.00%     88.36% # Class of committed instruction
system.cpu.commit.op_class_0::SimdAes               0      0.00%     88.36% # Class of committed instruction
system.cpu.commit.op_class_0::SimdAesMix            0      0.00%     88.36% # Class of committed instruction
system.cpu.commit.op_class_0::SimdSha1Hash            0      0.00%     88.36% # Class of committed instruction
system.cpu.commit.op_class_0::SimdSha1Hash2            0      0.00%     88.36% # Class of committed instruction
system.cpu.commit.op_class_0::SimdSha256Hash            0      0.00%     88.36% # Class of committed instruction
system.cpu.commit.op_class_0::SimdSha256Hash2            0      0.00%     88.36% # Class of committed instruction
system.cpu.commit.op_class_0::SimdShaSigma2            0      0.00%     88.36% # Class of committed instruction
system.cpu.commit.op_class_0::SimdShaSigma3            0      0.00%     88.36% # Class of committed instruction
system.cpu.commit.op_class_0::MemRead           35571      0.17%     88.54% # Class of committed instruction
system.cpu.commit.op_class_0::MemWrite        2208195     10.84%     99.38% # Class of committed instruction
system.cpu.commit.op_class_0::FloatMemRead       125810      0.62%    100.00% # Class of committed instruction
system.cpu.commit.op_class_0::FloatMemWrite          384      0.00%    100.00% # Class of committed instruction
system.cpu.commit.op_class_0::IprAccess             0      0.00%    100.00% # Class of committed instruction
system.cpu.commit.op_class_0::InstPrefetch            0      0.00%    100.00% # Class of committed instruction
system.cpu.commit.op_class_0::total          20364675                       # Class of committed instruction
system.cpu.commit.bw_lim_events                804639                       # number cycles where commit BW limit reached
system.cpu.rob.rob_reads                     45478884                       # The number of ROB reads
system.cpu.rob.rob_writes                    41444141                       # The number of ROB writes
system.cpu.timesIdled                             644                       # Number of times that the entire CPU went into an idle state and unscheduled itself
system.cpu.idleCycles                           47501                       # Total number of cycles that the CPU has spent unscheduled due to idling
system.cpu.committedInsts                    12389443                       # Number of Instructions Simulated
system.cpu.committedOps                      20364675                       # Number of Ops (including micro ops) Simulated
system.cpu.cpi                               2.073012                       # CPI: Cycles Per Instruction
system.cpu.cpi_total                         2.073012                       # CPI: Total CPI of All Threads
system.cpu.ipc                               0.482390                       # IPC: Instructions Per Cycle
system.cpu.ipc_total                         0.482390                       # IPC: Total IPC of All Threads
system.cpu.int_regfile_reads                 27787589                       # number of integer regfile reads
system.cpu.int_regfile_writes                14039263                       # number of integer regfile writes
system.cpu.fp_regfile_reads                   4384668                       # number of floating regfile reads
system.cpu.fp_regfile_writes                  2005365                       # number of floating regfile writes
system.cpu.cc_regfile_reads                  11551158                       # number of cc regfile reads
system.cpu.cc_regfile_writes                 13740624                       # number of cc regfile writes
system.cpu.misc_regfile_reads                 7040022                       # number of misc regfile reads
system.cpu.dcache.tags.pwrStateResidencyTicks::UNDEFINED  25683457000                       # Cumulative time (in ticks) in various power states
system.cpu.dcache.tags.tagsinuse          1021.106107                       # Cycle average of tags in use
system.cpu.dcache.tags.total_refs             2338134                       # Total number of references to valid blocks.
system.cpu.dcache.tags.sampled_refs            783351                       # Sample count of references to valid blocks.
system.cpu.dcache.tags.avg_refs              2.984785                       # Average number of references to valid blocks.
system.cpu.dcache.tags.warmup_cycle            232000                       # Cycle when the warmup percentage was hit.
system.cpu.dcache.tags.occ_blocks::.cpu.data  1021.106107                       # Average occupied blocks per requestor
system.cpu.dcache.tags.occ_percent::.cpu.data     0.997174                       # Average percentage of cache occupancy
system.cpu.dcache.tags.occ_percent::total     0.997174                       # Average percentage of cache occupancy
system.cpu.dcache.tags.occ_task_id_blocks::1024         1024                       # Occupied blocks per task id
system.cpu.dcache.tags.age_task_id_blocks_1024::0           29                       # Occupied blocks per task id
system.cpu.dcache.tags.age_task_id_blocks_1024::1          483                       # Occupied blocks per task id
system.cpu.dcache.tags.age_task_id_blocks_1024::4          512                       # Occupied blocks per task id
system.cpu.dcache.tags.occ_task_id_percent::1024            1                       # Percentage of cache occupancy per task id
system.cpu.dcache.tags.tag_accesses           5576823                       # Number of tag accesses
system.cpu.dcache.tags.data_accesses          5576823                       # Number of data accesses
system.cpu.dcache.pwrStateResidencyTicks::UNDEFINED  25683457000                       # Cumulative time (in ticks) in various power states
system.cpu.dcache.ReadReq_hits::.cpu.data       111430                       # number of ReadReq hits
system.cpu.dcache.ReadReq_hits::total          111430                       # number of ReadReq hits
system.cpu.dcache.WriteReq_hits::.cpu.data      1443353                       # number of WriteReq hits
system.cpu.dcache.WriteReq_hits::total        1443353                       # number of WriteReq hits
system.cpu.dcache.demand_hits::.cpu.data      1554783                       # number of demand (read+write) hits
system.cpu.dcache.demand_hits::total          1554783                       # number of demand (read+write) hits
system.cpu.dcache.overall_hits::.cpu.data      1554783                       # number of overall hits
system.cpu.dcache.overall_hits::total         1554783                       # number of overall hits
system.cpu.dcache.ReadReq_misses::.cpu.data        76727                       # number of ReadReq misses
system.cpu.dcache.ReadReq_misses::total         76727                       # number of ReadReq misses
system.cpu.dcache.WriteReq_misses::.cpu.data       765226                       # number of WriteReq misses
system.cpu.dcache.WriteReq_misses::total       765226                       # number of WriteReq misses
system.cpu.dcache.demand_misses::.cpu.data       841953                       # number of demand (read+write) misses
system.cpu.dcache.demand_misses::total         841953                       # number of demand (read+write) misses
system.cpu.dcache.overall_misses::.cpu.data       841953                       # number of overall misses
system.cpu.dcache.overall_misses::total        841953                       # number of overall misses
system.cpu.dcache.ReadReq_miss_latency::.cpu.data   2584902000                       # number of ReadReq miss cycles
system.cpu.dcache.ReadReq_miss_latency::total   2584902000                       # number of ReadReq miss cycles
system.cpu.dcache.WriteReq_miss_latency::.cpu.data  21763084000                       # number of WriteReq miss cycles
system.cpu.dcache.WriteReq_miss_latency::total  21763084000                       # number of WriteReq miss cycles
system.cpu.dcache.demand_miss_latency::.cpu.data  24347986000                       # number of demand (read+write) miss cycles
system.cpu.dcache.demand_miss_latency::total  24347986000                       # number of demand (read+write) miss cycles
system.cpu.dcache.overall_miss_latency::.cpu.data  24347986000                       # number of overall miss cycles
system.cpu.dcache.overall_miss_latency::total  24347986000                       # number of overall miss cycles
system.cpu.dcache.ReadReq_accesses::.cpu.data       188157                       # number of ReadReq accesses(hits+misses)
system.cpu.dcache.ReadReq_accesses::total       188157                       # number of ReadReq accesses(hits+misses)
system.cpu.dcache.WriteReq_accesses::.cpu.data      2208579                       # number of WriteReq accesses(hits+misses)
[...]
system.l2.WritebackClean_accesses::total          246                       # number of WritebackClean accesses(hits+misses)
system.l2.ReadExReq_accesses::.cpu.data        765221                       # number of ReadExReq accesses(hits+misses)
system.l2.ReadExReq_accesses::total            765221                       # number of ReadExReq accesses(hits+misses)
system.l2.ReadCleanReq_accesses::.cpu.inst         1097                       # number of ReadCleanReq accesses(hits+misses)
system.l2.ReadCleanReq_accesses::total           1097                       # number of ReadCleanReq accesses(hits+misses)
system.l2.ReadSharedReq_accesses::.cpu.data        18130                       # number of ReadSharedReq accesses(hits+misses)
system.l2.ReadSharedReq_accesses::total         18130                       # number of ReadSharedReq accesses(hits+misses)
system.l2.demand_accesses::.cpu.inst             1097                       # number of demand (read+write) accesses
system.l2.demand_accesses::.cpu.data           783351                       # number of demand (read+write) accesses
system.l2.demand_accesses::total               784448                       # number of demand (read+write) accesses
system.l2.overall_accesses::.cpu.inst            1097                       # number of overall (read+write) accesses
system.l2.overall_accesses::.cpu.data          783351                       # number of overall (read+write) accesses
system.l2.overall_accesses::total              784448                       # number of overall (read+write) accesses
system.l2.ReadExReq_miss_rate::.cpu.data     0.021002                       # miss rate for ReadExReq accesses
system.l2.ReadExReq_miss_rate::total         0.021002                       # miss rate for ReadExReq accesses
system.l2.ReadCleanReq_miss_rate::.cpu.inst     0.988149                       # miss rate for ReadCleanReq accesses
system.l2.ReadCleanReq_miss_rate::total      0.988149                       # miss rate for ReadCleanReq accesses
system.l2.ReadSharedReq_miss_rate::.cpu.data     0.107501                       # miss rate for ReadSharedReq accesses
system.l2.ReadSharedReq_miss_rate::total     0.107501                       # miss rate for ReadSharedReq accesses
system.l2.demand_miss_rate::.cpu.inst        0.988149                       # miss rate for demand accesses
system.l2.demand_miss_rate::.cpu.data        0.023004                       # miss rate for demand accesses
system.l2.demand_miss_rate::total            0.024353                       # miss rate for demand accesses
system.l2.overall_miss_rate::.cpu.inst       0.988149                       # miss rate for overall accesses
system.l2.overall_miss_rate::.cpu.data       0.023004                       # miss rate for overall accesses
system.l2.overall_miss_rate::total           0.024353                       # miss rate for overall accesses
system.l2.ReadExReq_avg_miss_latency::.cpu.data 102711.778981                       # average ReadExReq miss latency
system.l2.ReadExReq_avg_miss_latency::total 102711.778981                       # average ReadExReq miss latency
system.l2.ReadCleanReq_avg_miss_latency::.cpu.inst 104990.774908                       # average ReadCleanReq miss latency
system.l2.ReadCleanReq_avg_miss_latency::total 104990.774908                       # average ReadCleanReq miss latency
system.l2.ReadSharedReq_avg_miss_latency::.cpu.data 104010.261673                       # average ReadSharedReq miss latency
system.l2.ReadSharedReq_avg_miss_latency::total 104010.261673                       # average ReadSharedReq miss latency
system.l2.demand_avg_miss_latency::.cpu.inst 104990.774908                       # average overall miss latency
system.l2.demand_avg_miss_latency::.cpu.data 102852.219756                       # average overall miss latency
system.l2.demand_avg_miss_latency::total 102973.565745                       # average overall miss latency
system.l2.overall_avg_miss_latency::.cpu.inst 104990.774908                       # average overall miss latency
system.l2.overall_avg_miss_latency::.cpu.data 102852.219756                       # average overall miss latency
system.l2.overall_avg_miss_latency::total 102973.565745                       # average overall miss latency
system.l2.blocked_cycles::no_mshrs                  0                       # number of cycles access was blocked
system.l2.blocked_cycles::no_targets                0                       # number of cycles access was blocked
system.l2.blocked::no_mshrs                         0                       # number of cycles access was blocked
system.l2.blocked::no_targets                       0                       # number of cycles access was blocked
system.l2.avg_blocked_cycles::no_mshrs            nan                       # average number of cycles each access was blocked
system.l2.avg_blocked_cycles::no_targets          nan                       # average number of cycles each access was blocked
system.l2.ReadExReq_mshr_misses::.cpu.data        16071                       # number of ReadExReq MSHR misses
system.l2.ReadExReq_mshr_misses::total          16071                       # number of ReadExReq MSHR misses
system.l2.ReadCleanReq_mshr_misses::.cpu.inst         1084                       # number of ReadCleanReq MSHR misses
system.l2.ReadCleanReq_mshr_misses::total         1084                       # number of ReadCleanReq MSHR misses
system.l2.ReadSharedReq_mshr_misses::.cpu.data         1949                       # number of ReadSharedReq MSHR misses
system.l2.ReadSharedReq_mshr_misses::total         1949                       # number of ReadSharedReq MSHR misses
system.l2.demand_mshr_misses::.cpu.inst          1084                       # number of demand (read+write) MSHR misses
system.l2.demand_mshr_misses::.cpu.data         18020                       # number of demand (read+write) MSHR misses
system.l2.demand_mshr_misses::total             19104                       # number of demand (read+write) MSHR misses
system.l2.overall_mshr_misses::.cpu.inst         1084                       # number of overall MSHR misses
system.l2.overall_mshr_misses::.cpu.data        18020                       # number of overall MSHR misses
system.l2.overall_mshr_misses::total            19104                       # number of overall MSHR misses
system.l2.ReadExReq_mshr_miss_latency::.cpu.data   1329261000                       # number of ReadExReq MSHR miss cycles
system.l2.ReadExReq_mshr_miss_latency::total   1329261000                       # number of ReadExReq MSHR miss cycles
system.l2.ReadCleanReq_mshr_miss_latency::.cpu.inst     92130000                       # number of ReadCleanReq MSHR miss cycles
system.l2.ReadCleanReq_mshr_miss_latency::total     92130000                       # number of ReadCleanReq MSHR miss cycles
system.l2.ReadSharedReq_mshr_miss_latency::.cpu.data    163736000                       # number of ReadSharedReq MSHR miss cycles
system.l2.ReadSharedReq_mshr_miss_latency::total    163736000                       # number of ReadSharedReq MSHR miss cycles
system.l2.demand_mshr_miss_latency::.cpu.inst     92130000                       # number of demand (read+write) MSHR miss cycles
system.l2.demand_mshr_miss_latency::.cpu.data   1492997000                       # number of demand (read+write) MSHR miss cycles
system.l2.demand_mshr_miss_latency::total   1585127000                       # number of demand (read+write) MSHR miss cycles
system.l2.overall_mshr_miss_latency::.cpu.inst     92130000                       # number of overall MSHR miss cycles
system.l2.overall_mshr_miss_latency::.cpu.data   1492997000                       # number of overall MSHR miss cycles
system.l2.overall_mshr_miss_latency::total   1585127000                       # number of overall MSHR miss cycles
system.l2.ReadExReq_mshr_miss_rate::.cpu.data     0.021002                       # mshr miss rate for ReadExReq accesses
system.l2.ReadExReq_mshr_miss_rate::total     0.021002                       # mshr miss rate for ReadExReq accesses
system.l2.ReadCleanReq_mshr_miss_rate::.cpu.inst     0.988149                       # mshr miss rate for ReadCleanReq accesses
system.l2.ReadCleanReq_mshr_miss_rate::total     0.988149                       # mshr miss rate for ReadCleanReq accesses
system.l2.ReadSharedReq_mshr_miss_rate::.cpu.data     0.107501                       # mshr miss rate for ReadSharedReq accesses
system.l2.ReadSharedReq_mshr_miss_rate::total     0.107501                       # mshr miss rate for ReadSharedReq accesses
system.l2.demand_mshr_miss_rate::.cpu.inst     0.988149                       # mshr miss rate for demand accesses
system.l2.demand_mshr_miss_rate::.cpu.data     0.023004                       # mshr miss rate for demand accesses
system.l2.demand_mshr_miss_rate::total       0.024353                       # mshr miss rate for demand accesses
system.l2.overall_mshr_miss_rate::.cpu.inst     0.988149                       # mshr miss rate for overall accesses
system.l2.overall_mshr_miss_rate::.cpu.data     0.023004                       # mshr miss rate for overall accesses
system.l2.overall_mshr_miss_rate::total      0.024353                       # mshr miss rate for overall accesses
system.l2.ReadExReq_avg_mshr_miss_latency::.cpu.data 82711.778981                       # average ReadExReq mshr miss latency
system.l2.ReadExReq_avg_mshr_miss_latency::total 82711.778981                       # average ReadExReq mshr miss latency
system.l2.ReadCleanReq_avg_mshr_miss_latency::.cpu.inst 84990.774908                       # average ReadCleanReq mshr miss latency
system.l2.ReadCleanReq_avg_mshr_miss_latency::total 84990.774908                       # average ReadCleanReq mshr miss latency
system.l2.ReadSharedReq_avg_mshr_miss_latency::.cpu.data 84010.261673                       # average ReadSharedReq mshr miss latency
system.l2.ReadSharedReq_avg_mshr_miss_latency::total 84010.261673                       # average ReadSharedReq mshr miss latency
system.l2.demand_avg_mshr_miss_latency::.cpu.inst 84990.774908                       # average overall mshr miss latency
system.l2.demand_avg_mshr_miss_latency::.cpu.data 82852.219756                       # average overall mshr miss latency
system.l2.demand_avg_mshr_miss_latency::total 82973.565745                       # average overall mshr miss latency
system.l2.overall_avg_mshr_miss_latency::.cpu.inst 84990.774908                       # average overall mshr miss latency
system.l2.overall_avg_mshr_miss_latency::.cpu.data 82852.219756                       # average overall mshr miss latency
system.l2.overall_avg_mshr_miss_latency::total 82973.565745                       # average overall mshr miss latency
system.l2.replacements                              0                       # number of replacements
system.membus.snoop_filter.tot_requests         19104                       # Total number of requests made to the snoop filter.
system.membus.snoop_filter.hit_single_requests            0                       # Number of requests hitting in the snoop filter with a single holder of the requested data.
system.membus.snoop_filter.hit_multi_requests            0                       # Number of requests hitting in the snoop filter with multiple (>1) holders of the requested data.
system.membus.snoop_filter.tot_snoops               0                       # Total number of snoops made to the snoop filter.
system.membus.snoop_filter.hit_single_snoops            0                       # Number of snoops hitting in the snoop filter with a single holder of the requested data.
system.membus.snoop_filter.hit_multi_snoops            0                       # Number of snoops hitting in the snoop filter with multiple (>1) holders of the requested data.
system.membus.pwrStateResidencyTicks::UNDEFINED  25683457000                       # Cumulative time (in ticks) in various power states
system.membus.trans_dist::ReadResp               3033                       # Transaction distribution
system.membus.trans_dist::ReadExReq             16071                       # Transaction distribution
system.membus.trans_dist::ReadExResp            16071                       # Transaction distribution
system.membus.trans_dist::ReadSharedReq          3033                       # Transaction distribution
system.membus.pkt_count_system.l2.mem_side::system.mem_ctrls.port        38208                       # Packet count per connected master and slave (bytes)
system.membus.pkt_count_system.l2.mem_side::total        38208                       # Packet count per connected master and slave (bytes)
system.membus.pkt_count::total                  38208                       # Packet count per connected master and slave (bytes)
system.membus.pkt_size_system.l2.mem_side::system.mem_ctrls.port      1222656                       # Cumulative packet size per connected master and slave (bytes)
system.membus.pkt_size_system.l2.mem_side::total      1222656                       # Cumulative packet size per connected master and slave (bytes)
system.membus.pkt_size::total                 1222656                       # Cumulative packet size per connected master and slave (bytes)
system.membus.snoops                                0                       # Total snoops (count)
system.membus.snoopTraffic                          0                       # Total snoop traffic (bytes)
system.membus.snoop_fanout::samples             19104                       # Request fanout histogram
system.membus.snoop_fanout::mean                    0                       # Request fanout histogram
system.membus.snoop_fanout::stdev                   0                       # Request fanout histogram
system.membus.snoop_fanout::underflows              0      0.00%      0.00% # Request fanout histogram
system.membus.snoop_fanout::0                   19104    100.00%    100.00% # Request fanout histogram
system.membus.snoop_fanout::1                       0      0.00%    100.00% # Request fanout histogram
system.membus.snoop_fanout::overflows               0      0.00%    100.00% # Request fanout histogram
system.membus.snoop_fanout::min_value               0                       # Request fanout histogram
system.membus.snoop_fanout::max_value               0                       # Request fanout histogram
system.membus.snoop_fanout::total               19104                       # Request fanout histogram
system.membus.reqLayer2.occupancy            19104000                       # Layer occupancy (ticks)
system.membus.reqLayer2.utilization               0.1                       # Layer utilization (%)
system.membus.respLayer1.occupancy          100685000                       # Layer occupancy (ticks)
system.membus.respLayer1.utilization              0.4                       # Layer utilization (%)
system.tol2bus.snoop_filter.tot_requests      1567022                       # Total number of requests made to the snoop filter.
system.tol2bus.snoop_filter.hit_single_requests       782577                       # Number of requests hitting in the snoop filter with a single holder of the requested data.
system.tol2bus.snoop_filter.hit_multi_requests            3                       # Number of requests hitting in the snoop filter with multiple (>1) holders of the requested data.
system.tol2bus.snoop_filter.tot_snoops              0                       # Total number of snoops made to the snoop filter.
system.tol2bus.snoop_filter.hit_single_snoops            0                       # Number of snoops hitting in the snoop filter with a single holder of the requested data.
system.tol2bus.snoop_filter.hit_multi_snoops            0                       # Number of snoops hitting in the snoop filter with multiple (>1) holders of the requested data.
system.tol2bus.pwrStateResidencyTicks::UNDEFINED  25683457000                       # Cumulative time (in ticks) in various power states
system.tol2bus.trans_dist::ReadResp             19227                       # Transaction distribution
system.tol2bus.trans_dist::WritebackDirty       780520                       # Transaction distribution
system.tol2bus.trans_dist::WritebackClean          247                       # Transaction distribution
system.tol2bus.trans_dist::CleanEvict            1807                       # Transaction distribution
system.tol2bus.trans_dist::ReadExReq           765221                       # Transaction distribution
system.tol2bus.trans_dist::ReadExResp          765221                       # Transaction distribution
system.tol2bus.trans_dist::ReadCleanReq          1097                       # Transaction distribution
system.tol2bus.trans_dist::ReadSharedReq        18130                       # Transaction distribution
system.tol2bus.pkt_count_system.cpu.icache.mem_side::system.l2.cpu_side         2441                       # Packet count per connected master and slave (bytes)
system.tol2bus.pkt_count_system.cpu.dcache.mem_side::system.l2.cpu_side      2349029                       # Packet count per connected master and slave (bytes)
system.tol2bus.pkt_count::total               2351470                       # Packet count per connected master and slave (bytes)
system.tol2bus.pkt_size_system.cpu.icache.mem_side::system.l2.cpu_side        86016                       # Cumulative packet size per connected master and slave (bytes)
system.tol2bus.pkt_size_system.cpu.dcache.mem_side::system.l2.cpu_side    100087744                       # Cumulative packet size per connected master and slave (bytes)
system.tol2bus.pkt_size::total              100173760                       # Cumulative packet size per connected master and slave (bytes)
system.tol2bus.snoops                               0                       # Total snoops (count)
system.tol2bus.snoopTraffic                         0                       # Total snoop traffic (bytes)
system.tol2bus.snoop_fanout::samples           784448                       # Request fanout histogram
system.tol2bus.snoop_fanout::mean            0.000008                       # Request fanout histogram
system.tol2bus.snoop_fanout::stdev           0.002766                       # Request fanout histogram
system.tol2bus.snoop_fanout::underflows             0      0.00%      0.00% # Request fanout histogram
system.tol2bus.snoop_fanout::0                 784442    100.00%    100.00% # Request fanout histogram
system.tol2bus.snoop_fanout::1                      6      0.00%    100.00% # Request fanout histogram
system.tol2bus.snoop_fanout::2                      0      0.00%    100.00% # Request fanout histogram
system.tol2bus.snoop_fanout::3                      0      0.00%    100.00% # Request fanout histogram
system.tol2bus.snoop_fanout::4                      0      0.00%    100.00% # Request fanout histogram
system.tol2bus.snoop_fanout::overflows              0      0.00%    100.00% # Request fanout histogram
system.tol2bus.snoop_fanout::min_value              0                       # Request fanout histogram
system.tol2bus.snoop_fanout::max_value              1                       # Request fanout histogram
system.tol2bus.snoop_fanout::total             784448                       # Request fanout histogram
system.tol2bus.reqLayer0.occupancy         3128556000                       # Layer occupancy (ticks)
system.tol2bus.reqLayer0.utilization             12.2                       # Layer utilization (%)
system.tol2bus.respLayer0.occupancy           3293997                       # Layer occupancy (ticks)
system.tol2bus.respLayer0.utilization             0.0                       # Layer utilization (%)
system.tol2bus.respLayer1.occupancy        2350053000                       # Layer occupancy (ticks)
system.tol2bus.respLayer1.utilization             9.2                       # Layer utilization (%)

---------- End Simulation Statistics   ----------
