
---------- Begin Simulation Statistics ----------
sim_seconds                                  0.017316                       # Number of seconds simulated
sim_ticks                                 17316311162                       # Number of ticks simulated
final_tick                                17316311162                       # Number of ticks from beginning of simulation (restored from checkpoints and never reset)
sim_freq                                 1000000000000                       # Frequency of simulated ticks
host_inst_rate                                  73532                       # Simulator instruction rate (inst/s)
host_op_rate                                   120865                       # Simulator op (including micro ops) rate (op/s)
host_tick_rate                              102772499                       # Simulator tick rate (ticks/s)
host_mem_usage                                 677616                       # Number of bytes of host memory used
host_seconds                                   168.49                       # Real time elapsed on the host
sim_insts                                    12389443                       # Number of instructions simulated
sim_ops                                      20364675                       # Number of ops (including micro ops) simulated
system.voltage_domain.voltage                       1                       # Voltage in Volts
system.clk_domain.clock                           667                       # Clock period in ticks
system.mem_ctrls.pwrStateResidencyTicks::UNDEFINED  17316311162                       # Cumulative time (in ticks) in various power states
system.mem_ctrls.bytes_read::.cpu.inst          69184                       # Number of bytes read from this memory
system.mem_ctrls.bytes_read::.cpu.data        1153088                       # Number of bytes read from this memory
system.mem_ctrls.bytes_read::total            1222272                       # Number of bytes read from this memory
system.mem_ctrls.bytes_inst_read::.cpu.inst        69184                       # Number of instructions bytes read from this memory
system.mem_ctrls.bytes_inst_read::total         69184                       # Number of instructions bytes read from this memory
system.mem_ctrls.num_reads::.cpu.inst            1081                       # Number of read requests responded to by this memory
system.mem_ctrls.num_reads::.cpu.data           18017                       # Number of read requests responded to by this memory
system.mem_ctrls.num_reads::total               19098                       # Number of read requests responded to by this memory
system.mem_ctrls.bw_read::.cpu.inst           3995308                       # Total read bandwidth from this memory (bytes/s)
system.mem_ctrls.bw_read::.cpu.data          66589702                       # Total read bandwidth from this memory (bytes/s)
system.mem_ctrls.bw_read::total              70585010                       # Total read bandwidth from this memory (bytes/s)
system.mem_ctrls.bw_inst_read::.cpu.inst      3995308                       # Instruction read bandwidth from this memory (bytes/s)
system.mem_ctrls.bw_inst_read::total          3995308                       # Instruction read bandwidth from this memory (bytes/s)
system.mem_ctrls.bw_total::.cpu.inst          3995308                       # Total bandwidth to/from this memory (bytes/s)
system.mem_ctrls.bw_total::.cpu.data         66589702                       # Total bandwidth to/from this memory (bytes/s)
system.mem_ctrls.bw_total::total             70585010                       # Total bandwidth to/from this memory (bytes/s)
system.mem_ctrls.avgPriority_.cpu.inst::samples      1081.00                       # Average QoS priority value for accepted requests
system.mem_ctrls.avgPriority_.cpu.data::samples     18017.00                       # Average QoS priority value for accepted requests
system.mem_ctrls.priorityMinLatency      0.000000018750                       # per QoS priority minimum request to response latency (s)
system.mem_ctrls.priorityMaxLatency      0.000001099750                       # per QoS priority maximum request to response latency (s)
system.mem_ctrls.numReadWriteTurnArounds            0                       # Number of turnarounds from READ to WRITE
system.mem_ctrls.numWriteReadTurnArounds            0                       # Number of turnarounds from WRITE to READ
system.mem_ctrls.numStayReadState               38492                       # Number of times bus staying in READ state
system.mem_ctrls.numStayWriteState                  0                       # Number of times bus staying in WRITE state
system.mem_ctrls.readReqs                       19098                       # Number of read requests accepted
system.mem_ctrls.writeReqs                          0                       # Number of write requests accepted
system.mem_ctrls.readBursts                     19098                       # Number of DRAM read bursts, including those serviced by the write queue
system.mem_ctrls.writeBursts                        0                       # Number of DRAM write bursts, including those merged in the write queue
system.mem_ctrls.bytesReadDRAM                1222272                       # Total number of bytes read from DRAM
system.mem_ctrls.bytesReadWrQ                       0                       # Total number of bytes read from write queue
system.mem_ctrls.bytesWritten                       0                       # Total number of bytes written to DRAM
system.mem_ctrls.bytesReadSys                 1222272                       # Total read bytes from the system interface side
system.mem_ctrls.bytesWrittenSys                    0                       # Total written bytes from the system interface side
system.mem_ctrls.servicedByWrQ                      0                       # Number of DRAM read bursts serviced by the write queue
system.mem_ctrls.mergedWrBursts                     0                       # Number of DRAM write bursts merged with an existing one
system.mem_ctrls.neitherReadNorWriteReqs            0                       # Number of requests that are neither read nor write
system.mem_ctrls.perBankRdBursts::0              1230                       # Per bank write bursts
system.mem_ctrls.perBankRdBursts::1              1185                       # Per bank write bursts
system.mem_ctrls.perBankRdBursts::2              1216                       # Per bank write bursts
system.mem_ctrls.perBankRdBursts::3              1261                       # Per bank write bursts
system.mem_ctrls.perBankRdBursts::4              1183                       # Per bank write bursts
system.mem_ctrls.perBankRdBursts::5              1068                       # Per bank write bursts
system.mem_ctrls.perBankRdBursts::6              1101                       # Per bank write bursts
system.mem_ctrls.perBankRdBursts::7              1092                       # Per bank write bursts
system.mem_ctrls.perBankRdBursts::8              1208                       # Per bank write bursts
system.mem_ctrls.perBankRdBursts::9              1249                       # Per bank write bursts
system.mem_ctrls.perBankRdBursts::10             1244                       # Per bank write bursts
system.mem_ctrls.perBankRdBursts::11             1189                       # Per bank write bursts
system.mem_ctrls.perBankRdBursts::12             1166                       # Per bank write bursts
system.mem_ctrls.perBankRdBursts::13             1254                       # Per bank write bursts
system.mem_ctrls.perBankRdBursts::14             1212                       # Per bank write bursts
system.mem_ctrls.perBankRdBursts::15             1240                       # Per bank write bursts
system.mem_ctrls.perBankWrBursts::0                 0                       # Per bank write bursts
system.mem_ctrls.perBankWrBursts::1                 0                       # Per bank write bursts
system.mem_ctrls.perBankWrBursts::2                 0                       # Per bank write bursts
system.mem_ctrls.perBankWrBursts::3                 0                       # Per bank write bursts
system.mem_ctrls.perBankWrBursts::4                 0                       # Per bank write bursts
system.mem_ctrls.perBankWrBursts::5                 0                       # Per bank write bursts
system.mem_ctrls.perBankWrBursts::6                 0                       # Per bank write bursts
system.mem_ctrls.perBankWrBursts::7                 0                       # Per bank write bursts
system.mem_ctrls.perBankWrBursts::8                 0                       # Per bank write bursts
system.mem_ctrls.perBankWrBursts::9                 0                       # Per bank write bursts
system.mem_ctrls.perBankWrBursts::10                0                       # Per bank write bursts
system.mem_ctrls.perBankWrBursts::11                0                       # Per bank write bursts
system.mem_ctrls.perBankWrBursts::12                0                       # Per bank write bursts
system.mem_ctrls.perBankWrBursts::13                0                       # Per bank write bursts
system.mem_ctrls.perBankWrBursts::14                0                       # Per bank write bursts
system.mem_ctrls.perBankWrBursts::15                0                       # Per bank write bursts
system.mem_ctrls.numRdRetry                         0                       # Number of times read queue was full causing retry
system.mem_ctrls.numWrRetry                         0                       # Number of times write queue was full causing retry
system.mem_ctrls.totGap                   17316221117                       # Total gap between requests
system.mem_ctrls.readPktSize::0                     0                       # Read request sizes (log2)
system.mem_ctrls.readPktSize::1                     0                       # Read request sizes (log2)
system.mem_ctrls.readPktSize::2                     0                       # Read request sizes (log2)
system.mem_ctrls.readPktSize::3                     0                       # Read request sizes (log2)
system.mem_ctrls.readPktSize::4                     0                       # Read request sizes (log2)
system.mem_ctrls.readPktSize::5                     0                       # Read request sizes (log2)
system.mem_ctrls.readPktSize::6                 19098                       # Read request sizes (log2)
system.mem_ctrls.writePktSize::0                    0                       # Write request sizes (log2)
system.mem_ctrls.writePktSize::1                    0                       # Write request sizes (log2)
system.mem_ctrls.writePktSize::2                    0                       # Write request sizes (log2)
system.mem_ctrls.writePktSize::3                    0                       # Write request sizes (log2)
system.mem_ctrls.writePktSize::4                    0                       # Write request sizes (log2)
system.mem_ctrls.writePktSize::5                    0                       # Write request sizes (log2)
system.mem_ctrls.writePktSize::6                    0                       # Write request sizes (log2)
system.mem_ctrls.rdQLenPdf::0                   17880                       # What read queue length does an incoming req see
system.mem_ctrls.rdQLenPdf::1                     844                       # What read queue length does an incoming req see
system.mem_ctrls.rdQLenPdf::2                     297                       # What read queue length does an incoming req see
system.mem_ctrls.rdQLenPdf::3                      74                       # What read queue length does an incoming req see
system.mem_ctrls.rdQLenPdf::4                       3                       # What read queue length does an incoming req see
system.mem_ctrls.rdQLenPdf::5                       0                       # What read queue length does an incoming req see
system.mem_ctrls.rdQLenPdf::6                       0                       # What read queue length does an incoming req see
system.mem_ctrls.rdQLenPdf::7                       0                       # What read queue length does an incoming req see
system.mem_ctrls.rdQLenPdf::8                       0                       # What read queue length does an incoming req see
system.mem_ctrls.rdQLenPdf::9                       0                       # What read queue length does an incoming req see
system.mem_ctrls.rdQLenPdf::10                      0                       # What read queue length does an incoming req see
system.mem_ctrls.rdQLenPdf::11                      0                       # What read queue length does an incoming req see
system.mem_ctrls.rdQLenPdf::12                      0                       # What read queue length does an incoming req see
system.mem_ctrls.rdQLenPdf::13                      0                       # What read queue length does an incoming req see
system.mem_ctrls.rdQLenPdf::14                      0                       # What read queue length does an incoming req see
system.mem_ctrls.rdQLenPdf::15                      0                       # What read queue length does an incoming req see
system.mem_ctrls.rdQLenPdf::16                      0                       # What read queue length does an incoming req see
system.mem_ctrls.rdQLenPdf::17                      0                       # What read queue length does an incoming req see
system.mem_ctrls.rdQLenPdf::18                      0                       # What read queue length does an incoming req see
system.mem_ctrls.rdQLenPdf::19                      0                       # What read queue length does an incoming req see
system.mem_ctrls.rdQLenPdf::20                      0                       # What read queue length does an incoming req see
system.mem_ctrls.rdQLenPdf::21                      0                       # What read queue length does an incoming req see
system.mem_ctrls.rdQLenPdf::22                      0                       # What read queue length does an incoming req see
system.mem_ctrls.rdQLenPdf::23                      0                       # What read queue length does an incoming req see
system.mem_ctrls.rdQLenPdf::24                      0                       # What read queue length does an incoming req see
system.mem_ctrls.rdQLenPdf::25                      0                       # What read queue length does an incoming req see
system.mem_ctrls.rdQLenPdf::26                      0                       # What read queue length does an incoming req see
system.mem_ctrls.rdQLenPdf::27                      0                       # What read queue length does an incoming req see
system.mem_ctrls.rdQLenPdf::28                      0                       # What read queue length does an incoming req see
system.mem_ctrls.rdQLenPdf::29                      0                       # What read queue length does an incoming req see
system.mem_ctrls.rdQLenPdf::30                      0                       # What read queue length does an incoming req see
system.mem_ctrls.rdQLenPdf::31                      0                       # What read queue length does an incoming req see
system.mem_ctrls.wrQLenPdf::0                       0                       # What write queue length does an incoming req see
system.mem_ctrls.wrQLenPdf::1                       0                       # What write queue length does an incoming req see
system.mem_ctrls.wrQLenPdf::2                       0                       # What write queue length does an incoming req see
system.mem_ctrls.wrQLenPdf::3                       0                       # What write queue length does an incoming req see
system.mem_ctrls.wrQLenPdf::4                       0                       # What write queue length does an incoming req see
system.mem_ctrls.wrQLenPdf::5                       0                       # What write queue length does an incoming req see
system.mem_ctrls.wrQLenPdf::6                       0                       # What write queue length does an incoming req see
system.mem_ctrls.wrQLenPdf::7                       0                       # What write queue length does an incoming req see
system.mem_ctrls.wrQLenPdf::8                       0                       # What write queue length does an incoming req see
system.mem_ctrls.wrQLenPdf::9                       0                       # What write queue length does an incoming req see
system.mem_ctrls.wrQLenPdf::10                      0                       # What write queue length does an incoming req see
system.mem_ctrls.wrQLenPdf::11                      0                       # What write queue length does an incoming req see
system.mem_ctrls.wrQLenPdf::12                      0                       # What write queue length does an incoming req see
system.mem_ctrls.wrQLenPdf::13                      0                       # What write queue length does an incoming req see
system.mem_ctrls.wrQLenPdf::14                      0                       # What write queue length does an incoming req see
system.mem_ctrls.wrQLenPdf::15                      0                       # What write queue length does an incoming req see
system.mem_ctrls.wrQLenPdf::16                      0                       # What write queue length does an incoming req see
system.mem_ctrls.wrQLenPdf::17                      0                       # What write queue length does an incoming req see
system.mem_ctrls.wrQLenPdf::18                      0                       # What write queue length does an incoming req see
system.mem_ctrls.wrQLenPdf::19                      0                       # What write queue length does an incoming req see
system.mem_ctrls.wrQLenPdf::20                      0                       # What write queue length does an incoming req see
system.mem_ctrls.wrQLenPdf::21                      0                       # What write queue length does an incoming req see
system.mem_ctrls.wrQLenPdf::22                      0                       # What write queue length does an incoming req see
system.mem_ctrls.wrQLenPdf::23                      0                       # What write queue length does an incoming req see
system.mem_ctrls.wrQLenPdf::24                      0                       # What write queue length does an incoming req see
system.mem_ctrls.wrQLenPdf::25                      0                       # What write queue length does an incoming req see
system.mem_ctrls.wrQLenPdf::26                      0                       # What write queue length does an incoming req see
system.mem_ctrls.wrQLenPdf::27                      0                       # What write queue length does an incoming req see
system.mem_ctrls.wrQLenPdf::28                      0                       # What write queue length does an incoming req see
system.mem_ctrls.wrQLenPdf::29                      0                       # What write queue length does an incoming req see
system.mem_ctrls.wrQLenPdf::30                      0                       # What write queue length does an incoming req see
system.mem_ctrls.wrQLenPdf::31                      0                       # What write queue length does an incoming req see
system.mem_ctrls.wrQLenPdf::32                      0                       # What write queue length does an incoming req see
system.mem_ctrls.wrQLenPdf::33                      0                       # What write queue length does an incoming req see
system.mem_ctrls.wrQLenPdf::34                      0                       # What write queue length does an incoming req see
system.mem_ctrls.wrQLenPdf::35                      0                       # What write queue length does an incoming req see
system.mem_ctrls.wrQLenPdf::36                      0                       # What write queue length does an incoming req see
system.mem_ctrls.wrQLenPdf::37                      0                       # What write queue length does an incoming req see
system.mem_ctrls.wrQLenPdf::38                      0                       # What write queue length does an incoming req see
system.mem_ctrls.wrQLenPdf::39                      0                       # What write queue length does an incoming req see
system.mem_ctrls.wrQLenPdf::40                      0                       # What write queue length does an incoming req see
system.mem_ctrls.wrQLenPdf::41                      0                       # What write queue length does an incoming req see
system.mem_ctrls.wrQLenPdf::42                      0                       # What write queue length does an incoming req see
system.mem_ctrls.wrQLenPdf::43                      0                       # What write queue length does an incoming req see
system.mem_ctrls.wrQLenPdf::44                      0                       # What write queue length does an incoming req see
system.mem_ctrls.wrQLenPdf::45                      0                       # What write queue length does an incoming req see
system.mem_ctrls.wrQLenPdf::46                      0                       # What write queue length does an incoming req see
system.mem_ctrls.wrQLenPdf::47                      0                       # What write queue length does an incoming req see
system.mem_ctrls.wrQLenPdf::48                      0                       # What write queue length does an incoming req see
system.mem_ctrls.wrQLenPdf::49                      0                       # What write queue length does an incoming req see
system.mem_ctrls.wrQLenPdf::50                      0                       # What write queue length does an incoming req see
system.mem_ctrls.wrQLenPdf::51                      0                       # What write queue length does an incoming req see
system.mem_ctrls.wrQLenPdf::52                      0                       # What write queue length does an incoming req see
system.mem_ctrls.wrQLenPdf::53                      0                       # What write queue length does an incoming req see
system.mem_ctrls.wrQLenPdf::54                      0                       # What write queue length does an incoming req see
system.mem_ctrls.wrQLenPdf::55                      0                       # What write queue length does an incoming req see
system.mem_ctrls.wrQLenPdf::56                      0                       # What write queue length does an incoming req see
system.mem_ctrls.wrQLenPdf::57                      0                       # What write queue length does an incoming req see
system.mem_ctrls.wrQLenPdf::58                      0                       # What write queue length does an incoming req see
system.mem_ctrls.wrQLenPdf::59                      0                       # What write queue length does an incoming req see
system.mem_ctrls.wrQLenPdf::60                      0                       # What write queue length does an incoming req see
system.mem_ctrls.wrQLenPdf::61                      0                       # What write queue length does an incoming req see
system.mem_ctrls.wrQLenPdf::62                      0                       # What write queue length does an incoming req see
system.mem_ctrls.wrQLenPdf::63                      0                       # What write queue length does an incoming req see
system.mem_ctrls.bytesPerActivate::samples         1680                       # Bytes accessed per row activation
system.mem_ctrls.bytesPerActivate::mean    726.361905                       # Bytes accessed per row activation
system.mem_ctrls.bytesPerActivate::gmean   535.223550                       # Bytes accessed per row activation
system.mem_ctrls.bytesPerActivate::stdev   378.760843                       # Bytes accessed per row activation
system.mem_ctrls.bytesPerActivate::0-127          194     11.55%     11.55% # Bytes accessed per row activation
system.mem_ctrls.bytesPerActivate::128-255          148      8.81%     20.36% # Bytes accessed per row activation
system.mem_ctrls.bytesPerActivate::256-383           93      5.54%     25.89% # Bytes accessed per row activation
system.mem_ctrls.bytesPerActivate::384-511           64      3.81%     29.70% # Bytes accessed per row activation
system.mem_ctrls.bytesPerActivate::512-639           47      2.80%     32.50% # Bytes accessed per row activation
system.mem_ctrls.bytesPerActivate::640-767           51      3.04%     35.54% # Bytes accessed per row activation
system.mem_ctrls.bytesPerActivate::768-895          165      9.82%     45.36% # Bytes accessed per row activation
system.mem_ctrls.bytesPerActivate::896-1023           44      2.62%     47.98% # Bytes accessed per row activation
system.mem_ctrls.bytesPerActivate::1024-1151          874     52.02%    100.00% # Bytes accessed per row activation
system.mem_ctrls.bytesPerActivate::total         1680                       # Bytes accessed per row activation
system.mem_ctrls.masterReadBytes::.cpu.inst        69184                       # Per-master bytes read from memory
system.mem_ctrls.masterReadBytes::.cpu.data      1153088                       # Per-master bytes read from memory
system.mem_ctrls.masterReadRate::.cpu.inst 3995308.201195974369                       # Per-master bytes read from memory rate (Bytes/sec)
system.mem_ctrls.masterReadRate::.cpu.data 66589701.999026708305                       # Per-master bytes read from memory rate (Bytes/sec)
system.mem_ctrls.masterReadAccesses::.cpu.inst         1081                       # Per-master read serviced memory accesses
system.mem_ctrls.masterReadAccesses::.cpu.data        18017                       # Per-master read serviced memory accesses
system.mem_ctrls.masterReadTotalLat::.cpu.inst     35387752                       # Per-master read total memory access latency
system.mem_ctrls.masterReadTotalLat::.cpu.data    526577555                       # Per-master read total memory access latency
system.mem_ctrls.masterReadAvgLat::.cpu.inst     32736.13                       # Per-master read average memory access latency
system.mem_ctrls.masterReadAvgLat::.cpu.data     29226.71                       # Per-master read average memory access latency
system.mem_ctrls.totQLat                    203877807                       # Total ticks spent queuing
system.mem_ctrls.totMemAccLat               561965307                       # Total ticks spent from burst creation until serviced by the DRAM
system.mem_ctrls.totBusLat                   95490000                       # Total ticks spent in databus transfers
system.mem_ctrls.avgQLat                     10675.35                       # Average queueing delay per DRAM burst
system.mem_ctrls.avgBusLat                    5000.00                       # Average bus latency per DRAM burst
system.mem_ctrls.avgMemAccLat                29425.35                       # Average memory access latency per DRAM burst
system.mem_ctrls.avgRdBW                        70.59                       # Average DRAM read bandwidth in MiByte/s
system.mem_ctrls.avgWrBW                         0.00                       # Average achieved write bandwidth in MiByte/s
system.mem_ctrls.avgRdBWSys                     70.59                       # Average system read bandwidth in MiByte/s
system.mem_ctrls.avgWrBWSys                      0.00                       # Average system write bandwidth in MiByte/s
system.mem_ctrls.peakBW                      12800.00                       # Theoretical peak bandwidth in MiByte/s
system.mem_ctrls.busUtil                         0.55                       # Data bus utilization in percentage
system.mem_ctrls.busUtilRead                     0.55                       # Data bus utilization in percentage for reads
system.mem_ctrls.busUtilWrite                    0.00                       # Data bus utilization in percentage for writes
system.mem_ctrls.avgRdQLen                       1.09                       # Average read queue length when enqueuing
system.mem_ctrls.avgWrQLen                       0.00                       # Average write queue length when enqueuing
system.mem_ctrls.readRowHits                    17406                       # Number of row buffer hits during reads
system.mem_ctrls.writeRowHits                       0                       # Number of row buffer hits during writes
system.mem_ctrls.readRowHitRate                 91.14                       # Row buffer hit rate for reads
system.mem_ctrls.writeRowHitRate                  nan                       # Row buffer hit rate for writes
system.mem_ctrls.avgGap                     906703.38                       # Average gap between requests
system.mem_ctrls.pageHitRate                    91.14                       # Row buffer hit rate, read and write combined
system.mem_ctrls_0.actEnergy                  6204660                       # Energy for activate commands per rank (pJ)
system.mem_ctrls_0.preEnergy                  3267495                       # Energy for precharge commands per rank (pJ)
system.mem_ctrls_0.readEnergy                66659040                       # Energy for read commands per rank (pJ)
system.mem_ctrls_0.writeEnergy                      0                       # Energy for write commands per rank (pJ)
system.mem_ctrls_0.refreshEnergy         100186320.000000                       # Energy for refresh commands per rank (pJ)
system.mem_ctrls_0.actBackEnergy            129383730                       # Energy for active background per rank (pJ)
system.mem_ctrls_0.preBackEnergy              5419680                       # Energy for precharge background per rank (pJ)
system.mem_ctrls_0.actPowerDownEnergy       407586480                       # Energy for active power-down per rank (pJ)
system.mem_ctrls_0.prePowerDownEnergy        33871200                       # Energy for precharge power-down per rank (pJ)
system.mem_ctrls_0.selfRefreshEnergy       3855921120                       # Energy for self refresh per rank (pJ)
system.mem_ctrls_0.totalEnergy             4608499725                       # Total energy per rank (pJ)
system.mem_ctrls_0.averagePower            266.136343                       # Core power per rank (mW)
system.mem_ctrls_0.totalIdleTime          17018403836                       # Total Idle time Per DRAM Rank
system.mem_ctrls_0.memoryStateTime::IDLE      5673341                       # Time in different power states
system.mem_ctrls_0.memoryStateTime::REF      42380000                       # Time in different power states
system.mem_ctrls_0.memoryStateTime::SREF  16036424401                       # Time in different power states
system.mem_ctrls_0.memoryStateTime::PRE_PDN     88212581                       # Time in different power states
system.mem_ctrls_0.memoryStateTime::ACT     249804031                       # Time in different power states
system.mem_ctrls_0.memoryStateTime::ACT_PDN    893816808                       # Time in different power states
system.mem_ctrls_1.actEnergy                  5876220                       # Energy for activate commands per rank (pJ)
system.mem_ctrls_1.preEnergy                  3108105                       # Energy for precharge commands per rank (pJ)
system.mem_ctrls_1.readEnergy                69700680                       # Energy for read commands per rank (pJ)
system.mem_ctrls_1.writeEnergy                      0                       # Energy for write commands per rank (pJ)
system.mem_ctrls_1.refreshEnergy         104488800.000000                       # Energy for refresh commands per rank (pJ)
system.mem_ctrls_1.actBackEnergy            134236710                       # Energy for active background per rank (pJ)
system.mem_ctrls_1.preBackEnergy              6120960                       # Energy for precharge background per rank (pJ)
system.mem_ctrls_1.actPowerDownEnergy       439117170                       # Energy for active power-down per rank (pJ)
system.mem_ctrls_1.prePowerDownEnergy        22906560                       # Energy for precharge power-down per rank (pJ)
system.mem_ctrls_1.selfRefreshEnergy       3840425220                       # Energy for self refresh per rank (pJ)
system.mem_ctrls_1.totalEnergy             4625980425                       # Total energy per rank (pJ)
system.mem_ctrls_1.averagePower            267.145836                       # Core power per rank (mW)
system.mem_ctrls_1.totalIdleTime          17005864928                       # Total Idle time Per DRAM Rank
system.mem_ctrls_1.memoryStateTime::IDLE      6935286                       # Time in different power states
system.mem_ctrls_1.memoryStateTime::REF      44200000                       # Time in different power states
system.mem_ctrls_1.memoryStateTime::SREF  15983364016                       # Time in different power states
system.mem_ctrls_1.memoryStateTime::PRE_PDN     59654254                       # Time in different power states
system.mem_ctrls_1.memoryStateTime::ACT     259165613                       # Time in different power states
system.mem_ctrls_1.memoryStateTime::ACT_PDN    962991993                       # Time in different power states
system.pwrStateResidencyTicks::UNDEFINED  17316311162                       # Cumulative time (in ticks) in various power states
system.cpu.branchPred.lookups                 2353964                       # Number of BP lookups
system.cpu.branchPred.condPredicted           2353964                       # Number of conditional branches predicted
system.cpu.branchPred.condIncorrect              8100                       # Number of conditional branches incorrect
system.cpu.branchPred.BTBLookups              2334545                       # Number of BTB lookups
system.cpu.branchPred.BTBHits                       0                       # Number of BTB hits
system.cpu.branchPred.BTBCorrect                    0                       # Number of correct BTB predictions (this stat may not work properly.
system.cpu.branchPred.BTBHitPct              0.000000                       # BTB Hit Percentage
system.cpu.branchPred.usedRAS                    1927                       # Number of times the RAS was used to get a target.
system.cpu.branchPred.RASInCorrect                424                       # Number of incorrect RAS predictions.
system.cpu.branchPred.indirectLookups         2334545                       # Number of indirect predictor lookups.
system.cpu.branchPred.indirectHits            2294045                       # Number of indirect target hits.
system.cpu.branchPred.indirectMisses            40500                       # Number of indirect misses.
system.cpu.branchPredindirectMispredicted         4480                       # Number of mispredicted indirect branches.
system.cpu_voltage_domain.voltage                   1                       # Voltage in Volts
system.cpu_clk_domain.clock                       667                       # Clock period in ticks
system.cpu.dtb.walker.pwrStateResidencyTicks::UNDEFINED  17316311162                       # Cumulative time (in ticks) in various power states
system.cpu.dtb.rdAccesses                      192182                       # TLB accesses on read requests
system.cpu.dtb.wrAccesses                     2212612                       # TLB accesses on write requests
system.cpu.dtb.rdMisses                          2143                       # TLB misses on read requests
system.cpu.dtb.wrMisses                         41084                       # TLB misses on write requests
system.cpu.apic_clk_domain.clock                10672                       # Clock period in ticks
system.cpu.interrupts.pwrStateResidencyTicks::UNDEFINED  17316311162                       # Cumulative time (in ticks) in various power states
system.cpu.itb.walker.pwrStateResidencyTicks::UNDEFINED  17316311162                       # Cumulative time (in ticks) in various power states
system.cpu.itb.rdAccesses                           0                       # TLB accesses on read requests
system.cpu.itb.wrAccesses                      171464                       # TLB accesses on write requests
system.cpu.itb.rdMisses                             0                       # TLB misses on read requests
system.cpu.itb.wrMisses                           156                       # TLB misses on write requests
system.cpu.workload.numSyscalls                    32                       # Number of system calls
system.cpu.pwrStateResidencyTicks::ON     17316311162                       # Cumulative time (in ticks) in various power states
system.cpu.numCycles                         25961487                       # number of cpu cycles simulated
system.cpu.numWorkItemsStarted                      0                       # number of work items this cpu started
system.cpu.numWorkItemsCompleted                    0                       # number of work items this cpu completed
system.cpu.fetch.icacheStallCycles             201365                       # Number of cycles fetch is stalled on an Icache miss
system.cpu.fetch.Insts                       12665867                       # Number of instructions fetch has processed
system.cpu.fetch.Branches                     2353964                       # Number of branches that fetch encountered
system.cpu.fetch.predictedBranches            2295972                       # Number of branches that fetch has predicted taken
system.cpu.fetch.Cycles                      25688973                       # Number of cycles fetch has run and was not squashing or blocked
system.cpu.fetch.SquashCycles                   16342                       # Number of cycles fetch has spent squashing
system.cpu.fetch.TlbCycles                        127                       # Number of cycles fetch has spent waiting for tlb
system.cpu.fetch.MiscStallCycles                   40                       # Number of cycles fetch has spent waiting on interrupts, or bad addresses, or out of MSHRs
system.cpu.fetch.PendingTrapStallCycles           418                       # Number of stall cycles due to pending traps
system.cpu.fetch.PendingQuiesceStallCycles           14                       # Number of stall cycles due to pending quiesce instructions
system.cpu.fetch.IcacheWaitRetryStallCycles           30                       # Number of stall cycles due to full MSHR
system.cpu.fetch.CacheLines                    171403                       # Number of cache lines fetched
system.cpu.fetch.IcacheSquashes                  2343                       # Number of outstanding Icache misses that were squashed
system.cpu.fetch.rateDist::samples           25899138                       # Number of instructions fetched each cycle (Total)
system.cpu.fetch.rateDist::mean              0.806301                       # Number of instructions fetched each cycle (Total)
system.cpu.fetch.rateDist::stdev             2.364093                       # Number of instructions fetched each cycle (Total)
system.cpu.fetch.rateDist::underflows               0      0.00%      0.00% # Number of instructions fetched each cycle (Total)
system.cpu.fetch.rateDist::0                 23106743     89.22%     89.22% # Number of instructions fetched each cycle (Total)
system.cpu.fetch.rateDist::1                     8180      0.03%     89.25% # Number of instructions fetched each cycle (Total)
system.cpu.fetch.rateDist::2                     9796      0.04%     89.29% # Number of instructions fetched each cycle (Total)
system.cpu.fetch.rateDist::3                    70675      0.27%     89.56% # Number of instructions fetched each cycle (Total)
system.cpu.fetch.rateDist::4                   185007      0.71%     90.27% # Number of instructions fetched each cycle (Total)
system.cpu.fetch.rateDist::5                    69875      0.27%     90.54% # Number of instructions fetched each cycle (Total)
system.cpu.fetch.rateDist::6                    16175      0.06%     90.61% # Number of instructions fetched each cycle (Total)
system.cpu.fetch.rateDist::7                     5233      0.02%     90.63% # Number of instructions fetched each cycle (Total)
system.cpu.fetch.rateDist::8                  2427454      9.37%    100.00% # Number of instructions fetched each cycle (Total)
system.cpu.fetch.rateDist::overflows                0      0.00%    100.00% # Number of instructions fetched each cycle (Total)
system.cpu.fetch.rateDist::min_value                0                       # Number of instructions fetched each cycle (Total)
system.cpu.fetch.rateDist::max_value                8                       # Number of instructions fetched each cycle (Total)
system.cpu.fetch.rateDist::total             25899138                       # Number of instructions fetched each cycle (Total)
system.cpu.fetch.branchRate                  0.090671                       # Number of branch fetches per cycle
system.cpu.fetch.rate                        0.487871                       # Number of inst fetches per cycle
system.cpu.decode.IdleCycles                   905043                       # Number of cycles decode is idle
system.cpu.decode.BlockedCycles              22359732                       # Number of cycles decode is blocked
system.cpu.decode.RunCycles                    714336                       # Number of cycles decode is running
system.cpu.decode.UnblockCycles               1911856                       # Number of cycles decode is unblocking
system.cpu.decode.SquashCycles                   8171                       # Number of cycles decode is squashing
system.cpu.decode.DecodedInsts               20795802                       # Number of instructions handled by decode
system.cpu.rename.SquashCycles                   8171                       # Number of cycles rename is squashing
system.cpu.rename.IdleCycles                  1351593                       # Number of cycles rename is idle
system.cpu.rename.BlockCycles                 6897275                       # Number of cycles rename is blocking
system.cpu.rename.serializeStallCycles           2415                       # count of cycles rename stalled for serializing inst
system.cpu.rename.RunCycles                   2162062                       # Number of cycles rename is running
system.cpu.rename.UnblockCycles              15477622                       # Number of cycles rename is unblocking
system.cpu.rename.RenamedInsts               20755821                       # Number of instructions processed by rename
system.cpu.rename.ROBFullEvents                  1785                       # Number of times rename has blocked due to ROB full
system.cpu.rename.IQFullEvents                  57337                       # Number of times rename has blocked due to IQ full
system.cpu.rename.LQFullEvents                    277                       # Number of times rename has blocked due to LQ full
system.cpu.rename.SQFullEvents               14970253                       # Number of times rename has blocked due to SQ full
system.cpu.rename.RenamedOperands            30039441                       # Number of destination operands rename has renamed
system.cpu.rename.RenameLookups              51354319                       # Number of register rename lookups that rename has made
system.cpu.rename.int_rename_lookups         28115068                       # Number of integer rename lookups
system.cpu.rename.fp_rename_lookups           4392354                       # Number of floating rename lookups
system.cpu.rename.CommittedMaps              29547072                       # Number of HB maps that are committed
system.cpu.rename.UndoneMaps                   492369                       # Number of HB maps that are undone due to squashing
system.cpu.rename.serializingInsts                 93                       # count of serializing insts renamed
system.cpu.rename.tempSerializingInsts             66                       # count of temporary serializing insts renamed
system.cpu.rename.skidInsts                   9636669                       # count of insts added to the skid buffer
system.cpu.memDep0.insertedLoads               203574                       # Number of loads inserted to the mem dependence unit.
system.cpu.memDep0.insertedStores             2217322                       # Number of stores inserted to the mem dependence unit.
system.cpu.memDep0.conflictingLoads              1016                       # Number of conflicting loads.
system.cpu.memDep0.conflictingStores              263                       # Number of conflicting stores.
system.cpu.iq.iqInstsAdded                   20688715                       # Number of instructions added to the IQ (excludes non-spec)
system.cpu.iq.iqNonSpecInstsAdded                 137                       # Number of non-speculative instructions added to the IQ
system.cpu.iq.iqInstsIssued                  20588613                       # Number of instructions issued
system.cpu.iq.iqSquashedInstsIssued              2603                       # Number of squashed instructions issued
system.cpu.iq.iqSquashedInstsExamined          324176                       # Number of squashed instructions iterated over during squash; mainly for profiling
system.cpu.iq.iqSquashedOperandsExamined       456532                       # Number of squashed operands that are examined and possibly removed from graph
system.cpu.iq.iqSquashedNonSpecRemoved             93                       # Number of squashed non-spec instructions that were removed
system.cpu.iq.issued_per_cycle::samples      25899138                       # Number of insts issued each cycle
system.cpu.iq.issued_per_cycle::mean         0.794954                       # Number of insts issued each cycle
system.cpu.iq.issued_per_cycle::stdev        1.801311                       # Number of insts issued each cycle
system.cpu.iq.issued_per_cycle::underflows            0      0.00%      0.00% # Number of insts issued each cycle
system.cpu.iq.issued_per_cycle::0            20582279     79.47%     79.47% # Number of insts issued each cycle
system.cpu.iq.issued_per_cycle::1              913873      3.53%     83.00% # Number of insts issued each cycle
system.cpu.iq.issued_per_cycle::2              986797      3.81%     86.81% # Number of insts issued each cycle
system.cpu.iq.issued_per_cycle::3              224949      0.87%     87.68% # Number of insts issued each cycle
system.cpu.iq.issued_per_cycle::4              641906      2.48%     90.16% # Number of insts issued each cycle
system.cpu.iq.issued_per_cycle::5             1116339      4.31%     94.47% # Number of insts issued each cycle
system.cpu.iq.issued_per_cycle::6             1215479      4.69%     99.16% # Number of insts issued each cycle
system.cpu.iq.issued_per_cycle::7              156022      0.60%     99.76% # Number of insts issued each cycle
system.cpu.iq.issued_per_cycle::8               61494      0.24%    100.00% # Number of insts issued each cycle
system.cpu.iq.issued_per_cycle::overflows            0      0.00%    100.00% # Number of insts issued each cycle
system.cpu.iq.issued_per_cycle::min_value            0                       # Number of insts issued each cycle
system.cpu.iq.issued_per_cycle::max_value            8                       # Number of insts issued each cycle
system.cpu.iq.issued_per_cycle::total        25899138                       # Number of insts issued each cycle
system.cpu.iq.fu_full::No_OpClass                   0      0.00%      0.00% # attempts to use FU when none available
system.cpu.iq.fu_full::IntAlu                   36829     14.34%     14.34% # attempts to use FU when none available
system.cpu.iq.fu_full::IntMult                      0      0.00%     14.34% # attempts to use FU when none available
system.cpu.iq.fu_full::IntDiv                       0      0.00%     14.34% # attempts to use FU when none available
system.cpu.iq.fu_full::FloatAdd                     0      0.00%     14.34% # attempts to use FU when none available
system.cpu.iq.fu_full::FloatCmp                     0      0.00%     14.34% # attempts to use FU when none available
system.cpu.iq.fu_full::FloatCvt                     0      0.00%     14.34% # attempts to use FU when none available
system.cpu.iq.fu_full::FloatMult                    0      0.00%     14.34% # attempts to use FU when none available
system.cpu.iq.fu_full::FloatMultAcc                 0      0.00%     14.34% # attempts to use FU when none available
system.cpu.iq.fu_full::FloatDiv                     0      0.00%     14.34% # attempts to use FU when none available
system.cpu.iq.fu_full::FloatMisc                    0      0.00%     14.34% # attempts to use FU when none available
system.cpu.iq.fu_full::FloatSqrt                    0      0.00%     14.34% # attempts to use FU when none available
system.cpu.iq.fu_full::SimdAdd                      1      0.00%     14.34% # attempts to use FU when none available
system.cpu.iq.fu_full::SimdAddAcc                   0      0.00%     14.34% # attempts to use FU when none available
system.cpu.iq.fu_full::SimdAlu                  78003     30.37%     44.71% # attempts to use FU when none available
system.cpu.iq.fu_full::SimdCmp                      0      0.00%     44.71% # attempts to use FU when none available
system.cpu.iq.fu_full::SimdCvt                  78054     30.39%     75.09% # attempts to use FU when none available
system.cpu.iq.fu_full::SimdMisc                 62470     24.32%     99.41% # attempts to use FU when none available
system.cpu.iq.fu_full::SimdMult                     0      0.00%     99.41% # attempts to use FU when none available
system.cpu.iq.fu_full::SimdMultAcc                  0      0.00%     99.41% # attempts to use FU when none available
system.cpu.iq.fu_full::SimdShift                    0      0.00%     99.41% # attempts to use FU when none available
system.cpu.iq.fu_full::SimdShiftAcc                 0      0.00%     99.41% # attempts to use FU when none available
system.cpu.iq.fu_full::SimdSqrt                     0      0.00%     99.41% # attempts to use FU when none available
system.cpu.iq.fu_full::SimdFloatAdd                 0      0.00%     99.41% # attempts to use FU when none available
system.cpu.iq.fu_full::SimdFloatAlu                 0      0.00%     99.41% # attempts to use FU when none available
system.cpu.iq.fu_full::SimdFloatCmp                 0      0.00%     99.41% # attempts to use FU when none available
system.cpu.iq.fu_full::SimdFloatCvt                 0      0.00%     99.41% # attempts to use FU when none available
system.cpu.iq.fu_full::SimdFloatDiv                 0      0.00%     99.41% # attempts to use FU when none available
system.cpu.iq.fu_full::SimdFloatMisc                0      0.00%     99.41% # attempts to use FU when none available
system.cpu.iq.fu_full::SimdFloatMult                0      0.00%     99.41% # attempts to use FU when none available
system.cpu.iq.fu_full::SimdFloatMultAcc             0      0.00%     99.41% # attempts to use FU when none available
system.cpu.iq.fu_full::SimdFloatSqrt                0      0.00%     99.41% # attempts to use FU when none available
system.cpu.iq.fu_full::SimdAes                      0      0.00%     99.41% # attempts to use FU when none available
system.cpu.iq.fu_full::SimdAesMix                   0      0.00%     99.41% # attempts to use FU when none available
system.cpu.iq.fu_full::SimdSha1Hash                 0      0.00%     99.41% # attempts to use FU when none available
system.cpu.iq.fu_full::SimdSha1Hash2                0      0.00%     99.41% # attempts to use FU when none available
system.cpu.iq.fu_full::SimdSha256Hash               0      0.00%     99.41% # attempts to use FU when none available
system.cpu.iq.fu_full::SimdSha256Hash2              0      0.00%     99.41% # attempts to use FU when none available
system.cpu.iq.fu_full::SimdShaSigma2                0      0.00%     99.41% # attempts to use FU when none available
system.cpu.iq.fu_full::SimdShaSigma3                0      0.00%     99.41% # attempts to use FU when none available
system.cpu.iq.fu_full::MemRead                    952      0.37%     99.79% # attempts to use FU when none available
system.cpu.iq.fu_full::MemWrite                   477      0.19%     99.97% # attempts to use FU when none available
system.cpu.iq.fu_full::FloatMemRead                34      0.01%     99.98% # attempts to use FU when none available
system.cpu.iq.fu_full::FloatMemWrite               41      0.02%    100.00% # attempts to use FU when none available
system.cpu.iq.fu_full::IprAccess                    0      0.00%    100.00% # attempts to use FU when none available
system.cpu.iq.fu_full::InstPrefetch                 0      0.00%    100.00% # attempts to use FU when none available
system.cpu.iq.FU_type_0::No_OpClass              3820      0.02%      0.02% # Type of FU issued
system.cpu.iq.FU_type_0::IntAlu              16668435     80.96%     80.98% # Type of FU issued
system.cpu.iq.FU_type_0::IntMult                 1259      0.01%     80.98% # Type of FU issued
system.cpu.iq.FU_type_0::IntDiv                  1202      0.01%     80.99% # Type of FU issued
system.cpu.iq.FU_type_0::FloatAdd                 340      0.00%     80.99% # Type of FU issued
system.cpu.iq.FU_type_0::FloatCmp                   0      0.00%     80.99% # Type of FU issued
system.cpu.iq.FU_type_0::FloatCvt                   0      0.00%     80.99% # Type of FU issued
system.cpu.iq.FU_type_0::FloatMult                  0      0.00%     80.99% # Type of FU issued
system.cpu.iq.FU_type_0::FloatMultAcc               0      0.00%     80.99% # Type of FU issued
system.cpu.iq.FU_type_0::FloatDiv                   0      0.00%     80.99% # Type of FU issued
system.cpu.iq.FU_type_0::FloatMisc                  0      0.00%     80.99% # Type of FU issued
system.cpu.iq.FU_type_0::FloatSqrt                  0      0.00%     80.99% # Type of FU issued
system.cpu.iq.FU_type_0::SimdAdd               500514      2.43%     83.42% # Type of FU issued
system.cpu.iq.FU_type_0::SimdAddAcc                 0      0.00%     83.42% # Type of FU issued
system.cpu.iq.FU_type_0::SimdAlu               126116      0.61%     84.04% # Type of FU issued
system.cpu.iq.FU_type_0::SimdCmp                    6      0.00%     84.04% # Type of FU issued
system.cpu.iq.FU_type_0::SimdCvt               126293      0.61%     84.65% # Type of FU issued
system.cpu.iq.FU_type_0::SimdMisc              750706      3.65%     88.29% # Type of FU issued
system.cpu.iq.FU_type_0::SimdMult                   0      0.00%     88.29% # Type of FU issued
system.cpu.iq.FU_type_0::SimdMultAcc                0      0.00%     88.29% # Type of FU issued
system.cpu.iq.FU_type_0::SimdShift                371      0.00%     88.30% # Type of FU issued
system.cpu.iq.FU_type_0::SimdShiftAcc               0      0.00%     88.30% # Type of FU issued
system.cpu.iq.FU_type_0::SimdSqrt                   0      0.00%     88.30% # Type of FU issued
system.cpu.iq.FU_type_0::SimdFloatAdd               0      0.00%     88.30% # Type of FU issued
system.cpu.iq.FU_type_0::SimdFloatAlu               0      0.00%     88.30% # Type of FU issued
system.cpu.iq.FU_type_0::SimdFloatCmp               0      0.00%     88.30% # Type of FU issued
system.cpu.iq.FU_type_0::SimdFloatCvt               0      0.00%     88.30% # Type of FU issued
system.cpu.iq.FU_type_0::SimdFloatDiv               0      0.00%     88.30% # Type of FU issued
system.cpu.iq.FU_type_0::SimdFloatMisc              0      0.00%     88.30% # Type of FU issued
system.cpu.iq.FU_type_0::SimdFloatMult              0      0.00%     88.30% # Type of FU issued
system.cpu.iq.FU_type_0::SimdFloatMultAcc            0      0.00%     88.30% # Type of FU issued
system.cpu.iq.FU_type_0::SimdFloatSqrt              0      0.00%     88.30% # Type of FU issued
system.cpu.iq.FU_type_0::SimdAes                    0      0.00%     88.30% # Type of FU issued
system.cpu.iq.FU_type_0::SimdAesMix                 0      0.00%     88.30% # Type of FU issued
system.cpu.iq.FU_type_0::SimdSha1Hash               0      0.00%     88.30% # Type of FU issued
system.cpu.iq.FU_type_0::SimdSha1Hash2              0      0.00%     88.30% # Type of FU issued
system.cpu.iq.FU_type_0::SimdSha256Hash             0      0.00%     88.30% # Type of FU issued
system.cpu.iq.FU_type_0::SimdSha256Hash2            0      0.00%     88.30% # Type of FU issued
system.cpu.iq.FU_type_0::SimdShaSigma2              0      0.00%     88.30% # Type of FU issued
system.cpu.iq.FU_type_0::SimdShaSigma3              0      0.00%     88.30% # Type of FU issued
system.cpu.iq.FU_type_0::MemRead                68911      0.33%     88.63% # Type of FU issued
system.cpu.iq.FU_type_0::MemWrite             2213057     10.75%     99.38% # Type of FU issued
system.cpu.iq.FU_type_0::FloatMemRead          127122      0.62%    100.00% # Type of FU issued
system.cpu.iq.FU_type_0::FloatMemWrite            461      0.00%    100.00% # Type of FU issued
system.cpu.iq.FU_type_0::IprAccess                  0      0.00%    100.00% # Type of FU issued
system.cpu.iq.FU_type_0::InstPrefetch               0      0.00%    100.00% # Type of FU issued
system.cpu.iq.FU_type_0::total               20588613                       # Type of FU issued
system.cpu.iq.rate                           0.793044                       # Inst issue rate
system.cpu.iq.fu_busy_cnt                      256861                       # FU busy when requested
system.cpu.iq.fu_busy_rate                   0.012476                       # FU busy rate (busy events/executed inst)
system.cpu.iq.int_inst_queue_reads           63103074                       # Number of integer instruction queue reads
system.cpu.iq.int_inst_queue_writes          18997767                       # Number of integer instruction queue writes
system.cpu.iq.int_inst_queue_wakeup_accesses     18550639                       # Number of integer instruction queue wakeup accesses
system.cpu.iq.fp_inst_queue_reads             4232754                       # Number of floating instruction queue reads
system.cpu.iq.fp_inst_queue_writes            2015307                       # Number of floating instruction queue writes
system.cpu.iq.fp_inst_queue_wakeup_accesses      2006266                       # Number of floating instruction queue wakeup accesses
system.cpu.iq.vec_inst_queue_reads                  0                       # Number of vector instruction queue reads
system.cpu.iq.vec_inst_queue_writes                 0                       # Number of vector instruction queue writes
system.cpu.iq.vec_inst_queue_wakeup_accesses            0                       # Number of vector instruction queue wakeup accesses
system.cpu.iq.int_alu_accesses               18616024                       # Number of integer alu accesses
system.cpu.iq.fp_alu_accesses                 2225630                       # Number of floating point alu accesses
system.cpu.iq.vec_alu_accesses                      0                       # Number of vector alu accesses
system.cpu.iew.lsq.thread0.forwLoads             2427                       # Number of loads that had data forwarded from stores
system.cpu.iew.lsq.thread0.invAddrLoads             0                       # Number of loads ignored due to an invalid address
system.cpu.iew.lsq.thread0.squashedLoads        42193                       # Number of loads squashed
system.cpu.iew.lsq.thread0.ignoredResponses           20                       # Number of memory responses ignored because the instruction is squashed
system.cpu.iew.lsq.thread0.memOrderViolation           49                       # Number of memory ordering violations
system.cpu.iew.lsq.thread0.squashedStores         8743                       # Number of stores squashed
system.cpu.iew.lsq.thread0.invAddrSwpfs             0                       # Number of software prefetches ignored due to an invalid address
system.cpu.iew.lsq.thread0.blockedLoads             0                       # Number of blocked loads due to partial load-store forwarding
system.cpu.iew.lsq.thread0.rescheduledLoads            4                       # Number of loads that were rescheduled
system.cpu.iew.lsq.thread0.cacheBlocked           278                       # Number of times an access to memory failed due to the cache being blocked
system.cpu.iew.iewIdleCycles                        0                       # Number of cycles IEW is idle
system.cpu.iew.iewSquashCycles                   8171                       # Number of cycles IEW is squashing
system.cpu.iew.iewBlockCycles                  354315                       # Number of cycles IEW is blocking
system.cpu.iew.iewUnblockCycles               6470360                       # Number of cycles IEW is unblocking
system.cpu.iew.iewDispatchedInsts            20688852                       # Number of instructions dispatched to IQ
system.cpu.iew.iewDispSquashedInsts               324                       # Number of squashed instructions skipped by dispatch
system.cpu.iew.iewDispLoadInsts                203574                       # Number of dispatched load instructions
system.cpu.iew.iewDispStoreInsts              2217322                       # Number of dispatched store instructions
system.cpu.iew.iewDispNonSpecInsts                 80                       # Number of dispatched non-speculative instructions
system.cpu.iew.iewIQFullEvents                    939                       # Number of times the IQ has become full, causing a stall
system.cpu.iew.iewLSQFullEvents               6469172                       # Number of times the LSQ has become full, causing a stall
system.cpu.iew.memOrderViolationEvents             49                       # Number of memory order violations
system.cpu.iew.predictedTakenIncorrect           2214                       # Number of branches that were predicted taken incorrectly
system.cpu.iew.predictedNotTakenIncorrect         8281                       # Number of branches that were predicted not taken incorrectly
system.cpu.iew.branchMispredicts                10495                       # Number of branch mispredicts detected at execute
system.cpu.iew.iewExecutedInsts              20570332                       # Number of executed instructions
system.cpu.iew.iewExecLoadInsts                192118                       # Number of load instructions executed
system.cpu.iew.iewExecSquashedInsts             18281                       # Number of squashed instructions skipped in execute
system.cpu.iew.exec_swp                             0                       # number of swp insts executed
system.cpu.iew.exec_nop                             0                       # number of nop insts executed
system.cpu.iew.exec_refs                      2404726                       # number of memory reference insts executed
system.cpu.iew.exec_branches                  2306222                       # Number of branches executed
system.cpu.iew.exec_stores                    2212608                       # Number of stores executed
system.cpu.iew.exec_rate                     0.792340                       # Inst execution rate
system.cpu.iew.wb_sent                       20562400                       # cumulative count of insts sent to commit
system.cpu.iew.wb_count                      20556905                       # cumulative count of insts written-back
system.cpu.iew.wb_producers                  11862885                       # num instructions producing a value
system.cpu.iew.wb_consumers                  17903742                       # num instructions consuming a value
system.cpu.iew.wb_rate                       0.791823                       # insts written-back per cycle
system.cpu.iew.wb_fanout                     0.662592                       # average fanout of values written-back
system.cpu.commit.commitSquashedInsts          325173                       # The number of squashed insts skipped by commit
system.cpu.commit.commitNonSpecStalls              44                       # The number of times commit has been forced to stall to communicate backwards
system.cpu.commit.branchMispredicts              8136                       # The number of times a branch was mispredicted
system.cpu.commit.committed_per_cycle::samples     25850868                       # Number of insts commited each cycle
system.cpu.commit.committed_per_cycle::mean     0.787775                       # Number of insts commited each cycle
system.cpu.commit.committed_per_cycle::stdev     1.858549                       # Number of insts commited each cycle
system.cpu.commit.committed_per_cycle::underflows            0      0.00%      0.00% # Number of insts commited each cycle
system.cpu.commit.committed_per_cycle::0     20569499     79.57%     79.57% # Number of insts commited each cycle
system.cpu.commit.committed_per_cycle::1       843265      3.26%     82.83% # Number of insts commited each cycle
system.cpu.commit.committed_per_cycle::2      1013611      3.92%     86.75% # Number of insts commited each cycle
system.cpu.commit.committed_per_cycle::3       988309      3.82%     90.58% # Number of insts commited each cycle
system.cpu.commit.committed_per_cycle::4        37774      0.15%     90.72% # Number of insts commited each cycle
system.cpu.commit.committed_per_cycle::5      1590261      6.15%     96.87% # Number of insts commited each cycle
system.cpu.commit.committed_per_cycle::6        18516      0.07%     96.95% # Number of insts commited each cycle
system.cpu.commit.committed_per_cycle::7         1300      0.01%     96.95% # Number of insts commited each cycle
system.cpu.commit.committed_per_cycle::8       788333      3.05%    100.00% # Number of insts commited each cycle
system.cpu.commit.committed_per_cycle::overflows            0      0.00%    100.00% # Number of insts commited each cycle
system.cpu.commit.committed_per_cycle::min_value            0                       # Number of insts commited each cycle
system.cpu.commit.committed_per_cycle::max_value            8                       # Number of insts commited each cycle
system.cpu.commit.committed_per_cycle::total     25850868                       # Number of insts commited each cycle
system.cpu.commit.committedInsts             12389443                       # Number of instructions committed
system.cpu.commit.committedOps               20364675                       # Number of ops (including micro ops) committed
system.cpu.commit.swp_count                         0                       # Number of s/w prefetches committed
system.cpu.commit.refs                        2369960                       # Number of memory references committed
system.cpu.commit.loads                        161381                       # Number of loads committed
system.cpu.commit.membars                           8                       # Number of memory barriers committed
system.cpu.commit.branches                    2292533                       # Number of branches committed
system.cpu.commit.vec_insts                         0                       # Number of committed Vector instructions.
system.cpu.commit.fp_insts                    2003575                       # Number of committed floating point instructions.
system.cpu.commit.int_insts                  18486083                       # Number of committed integer instructions.
system.cpu.commit.function_calls                  665                       # Number of function calls committed.
system.cpu.commit.op_class_0::No_OpClass         1498      0.01%      0.01% # Class of committed instruction
system.cpu.commit.op_class_0::IntAlu         16488742     80.97%     80.97% # Class of committed instruction
system.cpu.commit.op_class_0::IntMult            1015      0.00%     80.98% # Class of committed instruction
system.cpu.commit.op_class_0::IntDiv             1142      0.01%     80.99% # Class of committed instruction
system.cpu.commit.op_class_0::FloatAdd             29      0.00%     80.99% # Class of committed instruction
system.cpu.commit.op_class_0::FloatCmp              0      0.00%     80.99% # Class of committed instruction
system.cpu.commit.op_class_0::FloatCvt              0      0.00%     80.99% # Class of committed instruction
system.cpu.commit.op_class_0::FloatMult             0      0.00%     80.99% # Class of committed instruction
system.cpu.commit.op_class_0::FloatMultAcc            0      0.00%     80.99% # Class of committed instruction
system.cpu.commit.op_class_0::FloatDiv              0      0.00%     80.99% # Class of committed instruction
system.cpu.commit.op_class_0::FloatMisc             0      0.00%     80.99% # Class of committed instruction
system.cpu.commit.op_class_0::FloatSqrt             0      0.00%     80.99% # Class of committed instruction
system.cpu.commit.op_class_0::SimdAdd          500322      2.46%     83.44% # Class of committed instruction
system.cpu.commit.op_class_0::SimdAddAcc            0      0.00%     83.44% # Class of committed instruction
system.cpu.commit.op_class_0::SimdAlu          125493      0.62%     84.06% # Class of committed instruction
system.cpu.commit.op_class_0::SimdCmp               6      0.00%     84.06% # Class of committed instruction
system.cpu.commit.op_class_0::SimdCvt          125754      0.62%     84.68% # Class of committed instruction
system.cpu.commit.op_class_0::SimdMisc         750531      3.69%     88.36% # Class of committed instruction
system.cpu.commit.op_class_0::SimdMult              0      0.00%     88.36% # Class of committed instruction
system.cpu.commit.op_class_0::SimdMultAcc            0      0.00%     88.36% # Class of committed instruction
system.cpu.commit.op_class_0::SimdShift           183      0.00%     88.36% # Class of committed instruction
system.cpu.commit.op_class_0::SimdShiftAcc            0      0.00%     88.36% # Class of committed instruction
system.cpu.commit.op_class_0::SimdSqrt              0      0.00%     88.36% # Class of committed instruction
system.cpu.commit.op_class_0::SimdFloatAdd            0      0.00%     88.36% # Class of committed instruction
system.cpu.commit.op_class_0::SimdFloatAlu            0      0.00%     88.36% # Class of committed instruction
system.cpu.commit.op_class_0::SimdFloatCmp            0      0.00%     88.36% # Class of committed instruction
system.cpu.commit.op_class_0::SimdFloatCvt            0      0.00%     88.36% # Class of committed instruction
system.cpu.commit.op_class_0::SimdFloatDiv            0      0.00%     88.36% # Class of committed instruction
system.cpu.commit.op_class_0::SimdFloatMisc            0      0.00%     88.36% # Class of committed instruction
system.cpu.commit.op_class_0::SimdFloatMult            0      0.00%     88.36% # Class of committed instruction
system.cpu.commit.op_class_0::SimdFloatMultAcc            0      0.00%     88.36% # Class of committed instruction
system.cpu.commit.op_class_0::SimdFloatSqrt            0      0.00%     88.36% # Class of committed instruction
system.cpu.commit.op_class_0::SimdAes               0      0.00%     88.36% # Class of committed instruction
system.cpu.commit.op_class_0::SimdAesMix            0      0.00%     88.36% # Class of committed instruction
system.cpu.commit.op_class_0::SimdSha1Hash            0      0.00%     88.36% # Class of committed instruction
system.cpu.commit.op_class_0::SimdSha1Hash2            0      0.00%     88.36% # Class of committed instruction
system.cpu.commit.op_class_0::SimdSha256Hash            0      0.00%     88.36% # Class of committed instruction
system.cpu.commit.op_class_0::SimdSha256Hash2            0      0.00%     88.36% # Class of committed instruction
system.cpu.commit.op_class_0::SimdShaSigma2            0      0.00%     88.36% # Class of committed instruction
system.cpu.commit.op_class_0::SimdShaSigma3            0      0.00%     88.36% # Class of committed instruction
system.cpu.commit.op_class_0::MemRead           35571      0.17%     88.54% # Class of committed instruction
system.cpu.commit.op_class_0::MemWrite        2208195     10.84%     99.38% # Class of committed instruction
system.cpu.commit.op_class_0::FloatMemRead       125810      0.62%    100.00% # Class of committed instruction
system.cpu.commit.op_class_0::FloatMemWrite          384      0.00%    100.00% # Class of committed instruction
system.cpu.commit.op_class_0::IprAccess             0      0.00%    100.00% # Class of committed instruction
system.cpu.commit.op_class_0::InstPrefetch            0      0.00%    100.00% # Class of committed instruction
system.cpu.commit.op_class_0::total          20364675                       # Class of committed instruction
system.cpu.commit.bw_lim_events                788333                       # number cycles where commit BW limit reached
system.cpu.rob.rob_reads                     45752383                       # The number of ROB reads
system.cpu.rob.rob_writes                    41428488                       # The number of ROB writes
system.cpu.timesIdled                             664                       # Number of times that the entire CPU went into an idle state and unscheduled itself
system.cpu.idleCycles                           62349                       # Total number of cycles that the CPU has spent unscheduled due to idling
system.cpu.committedInsts                    12389443                       # Number of Instructions Simulated
system.cpu.committedOps                      20364675                       # Number of Ops (including micro ops) Simulated
system.cpu.cpi                               2.095452                       # CPI: Cycles Per Instruction
system.cpu.cpi_total                         2.095452                       # CPI: Total CPI of All Threads
system.cpu.ipc                               0.477224                       # IPC: Instructions Per Cycle
system.cpu.ipc_total                         0.477224                       # IPC: Total IPC of All Threads
system.cpu.int_regfile_reads                 27784339                       # number of integer regfile reads
system.cpu.int_regfile_writes                14036499                       # number of integer regfile writes
system.cpu.fp_regfile_reads                   4384732                       # number of floating regfile reads
system.cpu.fp_regfile_writes                  2005405                       # number of floating regfile writes
system.cpu.cc_regfile_reads                  11549946                       # number of cc regfile reads
system.cpu.cc_regfile_writes                 13739474                       # number of cc regfile writes
system.cpu.misc_regfile_reads                 7038097                       # number of misc regfile reads
system.cpu.dcache.tags.pwrStateResidencyTicks::UNDEFINED  17316311162                       # Cumulative time (in ticks) in various power states
system.cpu.dcache.tags.tagsinuse          1020.969551                       # Cycle average of tags in use
system.cpu.dcache.tags.total_refs             2337660                       # Total number of references to valid blocks.
system.cpu.dcache.tags.sampled_refs            779002                       # Sample count of references to valid blocks.
system.cpu.dcache.tags.avg_refs              3.000840                       # Average number of references to valid blocks.
system.cpu.dcache.tags.warmup_cycle            191429                       # Cycle when the warmup percentage was hit.
system.cpu.dcache.tags.occ_blocks::.cpu.data  1020.969551                       # Average occupied blocks per requestor
system.cpu.dcache.tags.occ_percent::.cpu.data     0.997041                       # Average percentage of cache occupancy
system.cpu.dcache.tags.occ_percent::total     0.997041                       # Average percentage of cache occupancy
system.cpu.dcache.tags.occ_task_id_blocks::1024         1024                       # Occupied blocks per task id
system.cpu.dcache.tags.age_task_id_blocks_1024::0           61                       # Occupied blocks per task id
system.cpu.dcache.tags.age_task_id_blocks_1024::1          908                       # Occupied blocks per task id
system.cpu.dcache.tags.age_task_id_blocks_1024::2           55                       # Occupied blocks per task id
system.cpu.dcache.tags.occ_task_id_percent::1024            1                       # Percentage of cache occupancy per task id
system.cpu.dcache.tags.tag_accesses          19950394                       # Number of tag accesses
system.cpu.dcache.tags.data_accesses         19950394                       # Number of data accesses
system.cpu.dcache.pwrStateResidencyTicks::UNDEFINED  17316311162                       # Cumulative time (in ticks) in various power states
system.cpu.dcache.ReadReq_hits::.cpu.data       111090                       # number of ReadReq hits
system.cpu.dcache.ReadReq_hits::total          111090                       # number of ReadReq hits
system.cpu.dcache.WriteReq_hits::.cpu.data      1447568                       # number of WriteReq hits
system.cpu.dcache.WriteReq_hits::total        1447568                       # number of WriteReq hits
system.cpu.dcache.demand_hits::.cpu.data      1558658                       # number of demand (read+write) hits
system.cpu.dcache.demand_hits::total          1558658                       # number of demand (read+write) hits
system.cpu.dcache.overall_hits::.cpu.data      1558658                       # number of overall hits
system.cpu.dcache.overall_hits::total         1558658                       # number of overall hits
system.cpu.dcache.ReadReq_misses::.cpu.data        76755                       # number of ReadReq misses
system.cpu.dcache.ReadReq_misses::total         76755                       # number of ReadReq misses
system.cpu.dcache.WriteReq_misses::.cpu.data       761011                       # number of WriteReq misses
system.cpu.dcache.WriteReq_misses::total       761011                       # number of WriteReq misses
system.cpu.dcache.demand_misses::.cpu.data       837766                       # number of demand (read+write) misses
system.cpu.dcache.demand_misses::total         837766                       # number of demand (read+write) misses
system.cpu.dcache.overall_misses::.cpu.data       837766                       # number of overall misses
system.cpu.dcache.overall_misses::total        837766                       # number of overall misses
system.cpu.dcache.ReadReq_miss_latency::.cpu.data   1923472589                       # number of ReadReq miss cycles
system.cpu.dcache.ReadReq_miss_latency::total   1923472589                       # number of ReadReq miss cycles
system.cpu.dcache.WriteReq_miss_latency::.cpu.data  14676038351                       # number of WriteReq miss cycles
system.cpu.dcache.WriteReq_miss_latency::total  14676038351                       # number of WriteReq miss cycles
system.cpu.dcache.demand_miss_latency::.cpu.data  16599510940                       # number of demand (read+write) miss cycles
system.cpu.dcache.demand_miss_latency::total  16599510940                       # number of demand (read+write) miss cycles
system.cpu.dcache.overall_miss_latency::.cpu.data  16599510940                       # number of overall miss cycles
system.cpu.dcache.overall_miss_latency::total  16599510940                       # number of overall miss cycles
system.cpu.dcache.ReadReq_accesses::.cpu.data       187845                       # number of ReadReq accesses(hits+misses)
system.cpu.dcache.ReadReq_accesses::total       187845                       # number of ReadReq accesses(hits+misses)
system.cpu.dcache.WriteReq_accesses::.cpu.data      2208579                       # number of WriteReq accesses(hits+misses)
[...]
system.l2.WritebackClean_accesses::total          245                       # number of WritebackClean accesses(hits+misses)
system.l2.ReadExReq_accesses::.cpu.data        761004                       # number of ReadExReq accesses(hits+misses)
system.l2.ReadExReq_accesses::total            761004                       # number of ReadExReq accesses(hits+misses)
system.l2.ReadCleanReq_accesses::.cpu.inst         1096                       # number of ReadCleanReq accesses(hits+misses)
system.l2.ReadCleanReq_accesses::total           1096                       # number of ReadCleanReq accesses(hits+misses)
system.l2.ReadSharedReq_accesses::.cpu.data        17998                       # number of ReadSharedReq accesses(hits+misses)
system.l2.ReadSharedReq_accesses::total         17998                       # number of ReadSharedReq accesses(hits+misses)
system.l2.demand_accesses::.cpu.inst             1096                       # number of demand (read+write) accesses
system.l2.demand_accesses::.cpu.data           779002                       # number of demand (read+write) accesses
system.l2.demand_accesses::total               780098                       # number of demand (read+write) accesses
system.l2.overall_accesses::.cpu.inst            1096                       # number of overall (read+write) accesses
system.l2.overall_accesses::.cpu.data          779002                       # number of overall (read+write) accesses
system.l2.overall_accesses::total              780098                       # number of overall (read+write) accesses
system.l2.ReadExReq_miss_rate::.cpu.data     0.021118                       # miss rate for ReadExReq accesses
system.l2.ReadExReq_miss_rate::total         0.021118                       # miss rate for ReadExReq accesses
system.l2.ReadCleanReq_miss_rate::.cpu.inst     0.986314                       # miss rate for ReadCleanReq accesses
system.l2.ReadCleanReq_miss_rate::total      0.986314                       # miss rate for ReadCleanReq accesses
system.l2.ReadSharedReq_miss_rate::.cpu.data     0.108123                       # miss rate for ReadSharedReq accesses
system.l2.ReadSharedReq_miss_rate::total     0.108123                       # miss rate for ReadSharedReq accesses
system.l2.demand_miss_rate::.cpu.inst        0.986314                       # miss rate for demand accesses
system.l2.demand_miss_rate::.cpu.data        0.023128                       # miss rate for demand accesses
system.l2.demand_miss_rate::total            0.024482                       # miss rate for demand accesses
system.l2.overall_miss_rate::.cpu.inst       0.986314                       # miss rate for overall accesses
system.l2.overall_miss_rate::.cpu.data       0.023128                       # miss rate for overall accesses
system.l2.overall_miss_rate::total           0.024482                       # miss rate for overall accesses
system.l2.ReadExReq_avg_miss_latency::.cpu.data 83347.275776                       # average ReadExReq miss latency
system.l2.ReadExReq_avg_miss_latency::total 83347.275776                       # average ReadExReq miss latency
system.l2.ReadCleanReq_avg_miss_latency::.cpu.inst 87256.063830                       # average ReadCleanReq miss latency
system.l2.ReadCleanReq_avg_miss_latency::total 87256.063830                       # average ReadCleanReq miss latency
system.l2.ReadSharedReq_avg_miss_latency::.cpu.data 87663.885406                       # average ReadSharedReq miss latency
system.l2.ReadSharedReq_avg_miss_latency::total 87663.885406                       # average ReadSharedReq miss latency
system.l2.demand_avg_miss_latency::.cpu.inst 87256.063830                       # average overall miss latency
system.l2.demand_avg_miss_latency::.cpu.data 83813.508908                       # average overall miss latency
system.l2.demand_avg_miss_latency::total 84008.367107                       # average overall miss latency
system.l2.overall_avg_miss_latency::.cpu.inst 87256.063830                       # average overall miss latency
system.l2.overall_avg_miss_latency::.cpu.data 83813.508908                       # average overall miss latency
system.l2.overall_avg_miss_latency::total 84008.367107                       # average overall miss latency
system.l2.blocked_cycles::no_mshrs                  0                       # number of cycles access was blocked
system.l2.blocked_cycles::no_targets                0                       # number of cycles access was blocked
system.l2.blocked::no_mshrs                         0                       # number of cycles access was blocked
system.l2.blocked::no_targets                       0                       # number of cycles access was blocked
system.l2.avg_blocked_cycles::no_mshrs            nan                       # average number of cycles each access was blocked
system.l2.avg_blocked_cycles::no_targets          nan                       # average number of cycles each access was blocked
system.l2.ReadExReq_mshr_misses::.cpu.data        16071                       # number of ReadExReq MSHR misses
system.l2.ReadExReq_mshr_misses::total          16071                       # number of ReadExReq MSHR misses
system.l2.ReadCleanReq_mshr_misses::.cpu.inst         1081                       # number of ReadCleanReq MSHR misses
system.l2.ReadCleanReq_mshr_misses::total         1081                       # number of ReadCleanReq MSHR misses
system.l2.ReadSharedReq_mshr_misses::.cpu.data         1946                       # number of ReadSharedReq MSHR misses
system.l2.ReadSharedReq_mshr_misses::total         1946                       # number of ReadSharedReq MSHR misses
system.l2.demand_mshr_misses::.cpu.inst          1081                       # number of demand (read+write) MSHR misses
system.l2.demand_mshr_misses::.cpu.data         18017                       # number of demand (read+write) MSHR misses
system.l2.demand_mshr_misses::total             19098                       # number of demand (read+write) MSHR misses
system.l2.overall_mshr_misses::.cpu.inst         1081                       # number of overall MSHR misses
system.l2.overall_mshr_misses::.cpu.data        18017                       # number of overall MSHR misses
system.l2.overall_mshr_misses::total            19098                       # number of overall MSHR misses
system.l2.ReadExReq_mshr_miss_latency::.cpu.data   1125086929                       # number of ReadExReq MSHR miss cycles
system.l2.ReadExReq_mshr_miss_latency::total   1125086929                       # number of ReadExReq MSHR miss cycles
system.l2.ReadCleanReq_mshr_miss_latency::.cpu.inst     79903265                       # number of ReadCleanReq MSHR miss cycles
system.l2.ReadCleanReq_mshr_miss_latency::total     79903265                       # number of ReadCleanReq MSHR miss cycles
system.l2.ReadSharedReq_mshr_miss_latency::.cpu.data    144634281                       # number of ReadSharedReq MSHR miss cycles
system.l2.ReadSharedReq_mshr_miss_latency::total    144634281                       # number of ReadSharedReq MSHR miss cycles
system.l2.demand_mshr_miss_latency::.cpu.inst     79903265                       # number of demand (read+write) MSHR miss cycles
system.l2.demand_mshr_miss_latency::.cpu.data   1269721210                       # number of demand (read+write) MSHR miss cycles
system.l2.demand_mshr_miss_latency::total   1349624475                       # number of demand (read+write) MSHR miss cycles
system.l2.overall_mshr_miss_latency::.cpu.inst     79903265                       # number of overall MSHR miss cycles
system.l2.overall_mshr_miss_latency::.cpu.data   1269721210                       # number of overall MSHR miss cycles
system.l2.overall_mshr_miss_latency::total   1349624475                       # number of overall MSHR miss cycles
system.l2.ReadExReq_mshr_miss_rate::.cpu.data     0.021118                       # mshr miss rate for ReadExReq accesses
system.l2.ReadExReq_mshr_miss_rate::total     0.021118                       # mshr miss rate for ReadExReq accesses
system.l2.ReadCleanReq_mshr_miss_rate::.cpu.inst     0.986314                       # mshr miss rate for ReadCleanReq accesses
system.l2.ReadCleanReq_mshr_miss_rate::total     0.986314                       # mshr miss rate for ReadCleanReq accesses
system.l2.ReadSharedReq_mshr_miss_rate::.cpu.data     0.108123                       # mshr miss rate for ReadSharedReq accesses
system.l2.ReadSharedReq_mshr_miss_rate::total     0.108123                       # mshr miss rate for ReadSharedReq accesses
system.l2.demand_mshr_miss_rate::.cpu.inst     0.986314                       # mshr miss rate for demand accesses
system.l2.demand_mshr_miss_rate::.cpu.data     0.023128                       # mshr miss rate for demand accesses
system.l2.demand_mshr_miss_rate::total       0.024482                       # mshr miss rate for demand accesses
system.l2.overall_mshr_miss_rate::.cpu.inst     0.986314                       # mshr miss rate for overall accesses
system.l2.overall_mshr_miss_rate::.cpu.data     0.023128                       # mshr miss rate for overall accesses
system.l2.overall_mshr_miss_rate::total      0.024482                       # mshr miss rate for overall accesses
system.l2.ReadExReq_avg_mshr_miss_latency::.cpu.data 70007.275776                       # average ReadExReq mshr miss latency
system.l2.ReadExReq_avg_mshr_miss_latency::total 70007.275776                       # average ReadExReq mshr miss latency
system.l2.ReadCleanReq_avg_mshr_miss_latency::.cpu.inst 73916.063830                       # average ReadCleanReq mshr miss latency
system.l2.ReadCleanReq_avg_mshr_miss_latency::total 73916.063830                       # average ReadCleanReq mshr miss latency
system.l2.ReadSharedReq_avg_mshr_miss_latency::.cpu.data 74323.885406                       # average ReadSharedReq mshr miss latency
system.l2.ReadSharedReq_avg_mshr_miss_latency::total 74323.885406                       # average ReadSharedReq mshr miss latency
system.l2.demand_avg_mshr_miss_latency::.cpu.inst 73916.063830                       # average overall mshr miss latency
system.l2.demand_avg_mshr_miss_latency::.cpu.data 70473.508908                       # average overall mshr miss latency
system.l2.demand_avg_mshr_miss_latency::total 70668.367107                       # average overall mshr miss latency
system.l2.overall_avg_mshr_miss_latency::.cpu.inst 73916.063830                       # average overall mshr miss latency
system.l2.overall_avg_mshr_miss_latency::.cpu.data 70473.508908                       # average overall mshr miss latency
system.l2.overall_avg_mshr_miss_latency::total 70668.367107                       # average overall mshr miss latency
system.l2.replacements                              0                       # number of replacements
system.membus.snoop_filter.tot_requests         19098                       # Total number of requests made to the snoop filter.
system.membus.snoop_filter.hit_single_requests            0                       # Number of requests hitting in the snoop filter with a single holder of the requested data.
system.membus.snoop_filter.hit_multi_requests            0                       # Number of requests hitting in the snoop filter with multiple (>1) holders of the requested data.
system.membus.snoop_filter.tot_snoops               0                       # Total number of snoops made to the snoop filter.
system.membus.snoop_filter.hit_single_snoops            0                       # Number of snoops hitting in the snoop filter with a single holder of the requested data.
system.membus.snoop_filter.hit_multi_snoops            0                       # Number of snoops hitting in the snoop filter with multiple (>1) holders of the requested data.
system.membus.pwrStateResidencyTicks::UNDEFINED  17316311162                       # Cumulative time (in ticks) in various power states
system.membus.trans_dist::ReadResp               3027                       # Transaction distribution
system.membus.trans_dist::ReadExReq             16071                       # Transaction distribution
system.membus.trans_dist::ReadExResp            16071                       # Transaction distribution
system.membus.trans_dist::ReadSharedReq          3027                       # Transaction distribution
system.membus.pkt_count_system.l2.mem_side::system.mem_ctrls.port        38196                       # Packet count per connected master and slave (bytes)
system.membus.pkt_count_system.l2.mem_side::total        38196                       # Packet count per connected master and slave (bytes)
system.membus.pkt_count::total                  38196                       # Packet count per connected master and slave (bytes)
system.membus.pkt_size_system.l2.mem_side::system.mem_ctrls.port      1222272                       # Cumulative packet size per connected master and slave (bytes)
system.membus.pkt_size_system.l2.mem_side::total      1222272                       # Cumulative packet size per connected master and slave (bytes)
system.membus.pkt_size::total                 1222272                       # Cumulative packet size per connected master and slave (bytes)
system.membus.snoops                                0                       # Total snoops (count)
system.membus.snoopTraffic                          0                       # Total snoop traffic (bytes)
system.membus.snoop_fanout::samples             19098                       # Request fanout histogram
system.membus.snoop_fanout::mean                    0                       # Request fanout histogram
system.membus.snoop_fanout::stdev                   0                       # Request fanout histogram
system.membus.snoop_fanout::underflows              0      0.00%      0.00% # Request fanout histogram
system.membus.snoop_fanout::0                   19098    100.00%    100.00% # Request fanout histogram
system.membus.snoop_fanout::1                       0      0.00%    100.00% # Request fanout histogram
system.membus.snoop_fanout::overflows               0      0.00%    100.00% # Request fanout histogram
system.membus.snoop_fanout::min_value               0                       # Request fanout histogram
system.membus.snoop_fanout::max_value               0                       # Request fanout histogram
system.membus.snoop_fanout::total               19098                       # Request fanout histogram
system.membus.reqLayer2.occupancy            12738366                       # Layer occupancy (ticks)
system.membus.reqLayer2.utilization               0.1                       # Layer utilization (%)
system.membus.respLayer1.occupancy           74501652                       # Layer occupancy (ticks)
system.membus.respLayer1.utilization              0.4                       # Layer utilization (%)
system.tol2bus.snoop_filter.tot_requests      1558323                       # Total number of requests made to the snoop filter.
system.tol2bus.snoop_filter.hit_single_requests       778227                       # Number of requests hitting in the snoop filter with a single holder of the requested data.
system.tol2bus.snoop_filter.hit_multi_requests           10                       # Number of requests hitting in the snoop filter with multiple (>1) holders of the requested data.
system.tol2bus.snoop_filter.tot_snoops              0                       # Total number of snoops made to the snoop filter.
system.tol2bus.snoop_filter.hit_single_snoops            0                       # Number of snoops hitting in the snoop filter with a single holder of the requested data.
system.tol2bus.snoop_filter.hit_multi_snoops            0                       # Number of snoops hitting in the snoop filter with multiple (>1) holders of the requested data.
system.tol2bus.pwrStateResidencyTicks::UNDEFINED  17316311162                       # Cumulative time (in ticks) in various power states
system.tol2bus.trans_dist::ReadResp             19094                       # Transaction distribution
system.tol2bus.trans_dist::WritebackDirty       775981                       # Transaction distribution
system.tol2bus.trans_dist::WritebackClean          247                       # Transaction distribution
system.tol2bus.trans_dist::CleanEvict            1997                       # Transaction distribution
system.tol2bus.trans_dist::ReadExReq           761004                       # Transaction distribution
system.tol2bus.trans_dist::ReadExResp          761004                       # Transaction distribution
system.tol2bus.trans_dist::ReadCleanReq          1096                       # Transaction distribution
system.tol2bus.trans_dist::ReadSharedReq        17998                       # Transaction distribution
system.tol2bus.pkt_count_system.cpu.icache.mem_side::system.l2.cpu_side         2439                       # Packet count per connected master and slave (bytes)
system.tol2bus.pkt_count_system.cpu.dcache.mem_side::system.l2.cpu_side      2335982                       # Packet count per connected master and slave (bytes)
system.tol2bus.pkt_count::total               2338421                       # Packet count per connected master and slave (bytes)
system.tol2bus.pkt_size_system.cpu.icache.mem_side::system.l2.cpu_side        85952                       # Cumulative packet size per connected master and slave (bytes)
system.tol2bus.pkt_size_system.cpu.dcache.mem_side::system.l2.cpu_side     99518912                       # Cumulative packet size per connected master and slave (bytes)
system.tol2bus.pkt_size::total               99604864                       # Cumulative packet size per connected master and slave (bytes)
system.tol2bus.snoops                               0                       # Total snoops (count)
system.tol2bus.snoopTraffic                         0                       # Total snoop traffic (bytes)
system.tol2bus.snoop_fanout::samples           780098                       # Request fanout histogram
system.tol2bus.snoop_fanout::mean            0.000015                       # Request fanout histogram
system.tol2bus.snoop_fanout::stdev           0.003922                       # Request fanout histogram
system.tol2bus.snoop_fanout::underflows             0      0.00%      0.00% # Request fanout histogram
system.tol2bus.snoop_fanout::0                 780086    100.00%    100.00% # Request fanout histogram
system.tol2bus.snoop_fanout::1                     12      0.00%    100.00% # Request fanout histogram
system.tol2bus.snoop_fanout::2                      0      0.00%    100.00% # Request fanout histogram
system.tol2bus.snoop_fanout::3                      0      0.00%    100.00% # Request fanout histogram
system.tol2bus.snoop_fanout::4                      0      0.00%    100.00% # Request fanout histogram
system.tol2bus.snoop_fanout::overflows              0      0.00%    100.00% # Request fanout histogram
system.tol2bus.snoop_fanout::min_value              0                       # Request fanout histogram
system.tol2bus.snoop_fanout::max_value              1                       # Request fanout histogram
system.tol2bus.snoop_fanout::total             780098                       # Request fanout histogram
system.tol2bus.reqLayer0.occupancy         2074889593                       # Layer occupancy (ticks)
system.tol2bus.reqLayer0.utilization             12.0                       # Layer utilization (%)
system.tol2bus.respLayer0.occupancy           2194428                       # Layer occupancy (ticks)
system.tol2bus.respLayer0.utilization             0.0                       # Layer utilization (%)
system.tol2bus.respLayer1.occupancy        1558783002                       # Layer occupancy (ticks)
system.tol2bus.respLayer1.utilization             9.0                       # Layer utilization (%)

---------- End Simulation Statistics   ----------
