
---------- Begin Simulation Statistics ----------
sim_seconds                                  0.001845                       # Number of seconds simulated
sim_ticks                                  1845016047                       # Number of ticks simulated
final_tick                                 1845016047                       # Number of ticks from beginning of simulation (restored from checkpoints and never reset)
sim_freq                                 1000000000000                       # Frequency of simulated ticks
host_inst_rate                                  60916                       # Simulator instruction rate (inst/s)
host_op_rate                                    99343                       # Simulator op (including micro ops) rate (op/s)
host_tick_rate                               37550261                       # Simulator tick rate (ticks/s)
host_mem_usage                                 669464                       # Number of bytes of host memory used
host_seconds                                    49.13                       # Real time elapsed on the host
sim_insts                                     2993062                       # Number of instructions simulated
sim_ops                                       4881169                       # Number of ops (including micro ops) simulated
system.voltage_domain.voltage                       1                       # Voltage in Volts
system.clk_domain.clock                           667                       # Clock period in ticks
system.mem_ctrls.pwrStateResidencyTicks::UNDEFINED   1845016047                       # Cumulative time (in ticks) in various power states
system.mem_ctrls.bytes_read::.cpu.inst          53056                       # Number of bytes read from this memory
system.mem_ctrls.bytes_read::.cpu.data         160576                       # Number of bytes read from this memory
system.mem_ctrls.bytes_read::total             213632                       # Number of bytes read from this memory
system.mem_ctrls.bytes_inst_read::.cpu.inst        53056                       # Number of instructions bytes read from this memory
system.mem_ctrls.bytes_inst_read::total         53056                       # Number of instructions bytes read from this memory
system.mem_ctrls.num_reads::.cpu.inst             829                       # Number of read requests responded to by this memory
system.mem_ctrls.num_reads::.cpu.data            2509                       # Number of read requests responded to by this memory
system.mem_ctrls.num_reads::total                3338                       # Number of read requests responded to by this memory
system.mem_ctrls.bw_read::.cpu.inst          28756389                       # Total read bandwidth from this memory (bytes/s)
system.mem_ctrls.bw_read::.cpu.data          87032305                       # Total read bandwidth from this memory (bytes/s)
system.mem_ctrls.bw_read::total             115788695                       # Total read bandwidth from this memory (bytes/s)
system.mem_ctrls.bw_inst_read::.cpu.inst     28756389                       # Instruction read bandwidth from this memory (bytes/s)
system.mem_ctrls.bw_inst_read::total         28756389                       # Instruction read bandwidth from this memory (bytes/s)
system.mem_ctrls.bw_total::.cpu.inst         28756389                       # Total bandwidth to/from this memory (bytes/s)
system.mem_ctrls.bw_total::.cpu.data         87032305                       # Total bandwidth to/from this memory (bytes/s)
system.mem_ctrls.bw_total::total            115788695                       # Total bandwidth to/from this memory (bytes/s)
system.mem_ctrls.avgPriority_.cpu.inst::samples       829.00                       # Average QoS priority value for accepted requests
system.mem_ctrls.avgPriority_.cpu.data::samples      2509.00                       # Average QoS priority value for accepted requests
system.mem_ctrls.priorityMinLatency      0.000000018750                       # per QoS priority minimum request to response latency (s)
system.mem_ctrls.priorityMaxLatency      0.000001099750                       # per QoS priority maximum request to response latency (s)
system.mem_ctrls.numReadWriteTurnArounds            0                       # Number of turnarounds from READ to WRITE
system.mem_ctrls.numWriteReadTurnArounds            0                       # Number of turnarounds from WRITE to READ
system.mem_ctrls.numStayReadState                6915                       # Number of times bus staying in READ state
system.mem_ctrls.numStayWriteState                  0                       # Number of times bus staying in WRITE state
system.mem_ctrls.readReqs                        3338                       # Number of read requests accepted
system.mem_ctrls.writeReqs                          0                       # Number of write requests accepted
system.mem_ctrls.readBursts                      3338                       # Number of DRAM read bursts, including those serviced by the write queue
system.mem_ctrls.writeBursts                        0                       # Number of DRAM write bursts, including those merged in the write queue
system.mem_ctrls.bytesReadDRAM                 213632                       # Total number of bytes read from DRAM
system.mem_ctrls.bytesReadWrQ                       0                       # Total number of bytes read from write queue
system.mem_ctrls.bytesWritten                       0                       # Total number of bytes written to DRAM
system.mem_ctrls.bytesReadSys                  213632                       # Total read bytes from the system interface side
system.mem_ctrls.bytesWrittenSys                    0                       # Total written bytes from the system interface side
system.mem_ctrls.servicedByWrQ                      0                       # Number of DRAM read bursts serviced by the write queue
system.mem_ctrls.mergedWrBursts                     0                       # Number of DRAM write bursts merged with an existing one
system.mem_ctrls.neitherReadNorWriteReqs            0                       # Number of requests that are neither read nor write
system.mem_ctrls.perBankRdBursts::0               191                       # Per bank write bursts
system.mem_ctrls.perBankRdBursts::1               270                       # Per bank write bursts
system.mem_ctrls.perBankRdBursts::2               332                       # Per bank write bursts
system.mem_ctrls.perBankRdBursts::3               323                       # Per bank write bursts
system.mem_ctrls.perBankRdBursts::4               261                       # Per bank write bursts
system.mem_ctrls.perBankRdBursts::5               248                       # Per bank write bursts
system.mem_ctrls.perBankRdBursts::6               246                       # Per bank write bursts
system.mem_ctrls.perBankRdBursts::7               169                       # Per bank write bursts
system.mem_ctrls.perBankRdBursts::8               187                       # Per bank write bursts
system.mem_ctrls.perBankRdBursts::9                87                       # Per bank write bursts
system.mem_ctrls.perBankRdBursts::10              174                       # Per bank write bursts
system.mem_ctrls.perBankRdBursts::11              230                       # Per bank write bursts
system.mem_ctrls.perBankRdBursts::12              126                       # Per bank write bursts
system.mem_ctrls.perBankRdBursts::13              136                       # Per bank write bursts
system.mem_ctrls.perBankRdBursts::14              219                       # Per bank write bursts
system.mem_ctrls.perBankRdBursts::15              139                       # Per bank write bursts
system.mem_ctrls.perBankWrBursts::0                 0                       # Per bank write bursts
system.mem_ctrls.perBankWrBursts::1                 0                       # Per bank write bursts
system.mem_ctrls.perBankWrBursts::2                 0                       # Per bank write bursts
system.mem_ctrls.perBankWrBursts::3                 0                       # Per bank write bursts
system.mem_ctrls.perBankWrBursts::4                 0                       # Per bank write bursts
system.mem_ctrls.perBankWrBursts::5                 0                       # Per bank write bursts
system.mem_ctrls.perBankWrBursts::6                 0                       # Per bank write bursts
system.mem_ctrls.perBankWrBursts::7                 0                       # Per bank write bursts
system.mem_ctrls.perBankWrBursts::8                 0                       # Per bank write bursts
system.mem_ctrls.perBankWrBursts::9                 0                       # Per bank write bursts
system.mem_ctrls.perBankWrBursts::10                0                       # Per bank write bursts
system.mem_ctrls.perBankWrBursts::11                0                       # Per bank write bursts
system.mem_ctrls.perBankWrBursts::12                0                       # Per bank write bursts
system.mem_ctrls.perBankWrBursts::13                0                       # Per bank write bursts
system.mem_ctrls.perBankWrBursts::14                0                       # Per bank write bursts
system.mem_ctrls.perBankWrBursts::15                0                       # Per bank write bursts
system.mem_ctrls.numRdRetry                         0                       # Number of times read queue was full causing retry
system.mem_ctrls.numWrRetry                         0                       # Number of times write queue was full causing retry
system.mem_ctrls.totGap                    1844926002                       # Total gap between requests
system.mem_ctrls.readPktSize::0                     0                       # Read request sizes (log2)
system.mem_ctrls.readPktSize::1                     0                       # Read request sizes (log2)
system.mem_ctrls.readPktSize::2                     0                       # Read request sizes (log2)
system.mem_ctrls.readPktSize::3                     0                       # Read request sizes (log2)
system.mem_ctrls.readPktSize::4                     0                       # Read request sizes (log2)
system.mem_ctrls.readPktSize::5                     0                       # Read request sizes (log2)
system.mem_ctrls.readPktSize::6                  3338                       # Read request sizes (log2)
system.mem_ctrls.writePktSize::0                    0                       # Write request sizes (log2)
system.mem_ctrls.writePktSize::1                    0                       # Write request sizes (log2)
system.mem_ctrls.writePktSize::2                    0                       # Write request sizes (log2)
system.mem_ctrls.writePktSize::3                    0                       # Write request sizes (log2)
system.mem_ctrls.writePktSize::4                    0                       # Write request sizes (log2)
system.mem_ctrls.writePktSize::5                    0                       # Write request sizes (log2)
system.mem_ctrls.writePktSize::6                    0                       # Write request sizes (log2)
system.mem_ctrls.rdQLenPdf::0                    2381                       # What read queue length does an incoming req see
system.mem_ctrls.rdQLenPdf::1                     630                       # What read queue length does an incoming req see
system.mem_ctrls.rdQLenPdf::2                     256                       # What read queue length does an incoming req see
system.mem_ctrls.rdQLenPdf::3                      68                       # What read queue length does an incoming req see
system.mem_ctrls.rdQLenPdf::4                       3                       # What read queue length does an incoming req see
system.mem_ctrls.rdQLenPdf::5                       0                       # What read queue length does an incoming req see
system.mem_ctrls.rdQLenPdf::6                       0                       # What read queue length does an incoming req see
system.mem_ctrls.rdQLenPdf::7                       0                       # What read queue length does an incoming req see
system.mem_ctrls.rdQLenPdf::8                       0                       # What read queue length does an incoming req see
system.mem_ctrls.rdQLenPdf::9                       0                       # What read queue length does an incoming req see
system.mem_ctrls.rdQLenPdf::10                      0                       # What read queue length does an incoming req see
system.mem_ctrls.rdQLenPdf::11                      0                       # What read queue length does an incoming req see
system.mem_ctrls.rdQLenPdf::12                      0                       # What read queue length does an incoming req see
system.mem_ctrls.rdQLenPdf::13                      0                       # What read queue length does an incoming req see
system.mem_ctrls.rdQLenPdf::14                      0                       # What read queue length does an incoming req see
system.mem_ctrls.rdQLenPdf::15                      0                       # What read queue length does an incoming req see
system.mem_ctrls.rdQLenPdf::16                      0                       # What read queue length does an incoming req see
system.mem_ctrls.rdQLenPdf::17                      0                       # What read queue length does an incoming req see
system.mem_ctrls.rdQLenPdf::18                      0                       # What read queue length does an incoming req see
system.mem_ctrls.rdQLenPdf::19                      0                       # What read queue length does an incoming req see
system.mem_ctrls.rdQLenPdf::20                      0                       # What read queue length does an incoming req see
system.mem_ctrls.rdQLenPdf::21                      0                       # What read queue length does an incoming req see
system.mem_ctrls.rdQLenPdf::22                      0                       # What read queue length does an incoming req see
system.mem_ctrls.rdQLenPdf::23                      0                       # What read queue length does an incoming req see
system.mem_ctrls.rdQLenPdf::24                      0                       # What read queue length does an incoming req see
system.mem_ctrls.rdQLenPdf::25                      0                       # What read queue length does an incoming req see
system.mem_ctrls.rdQLenPdf::26                      0                       # What read queue length does an incoming req see
system.mem_ctrls.rdQLenPdf::27                      0                       # What read queue length does an incoming req see
system.mem_ctrls.rdQLenPdf::28                      0                       # What read queue length does an incoming req see
system.mem_ctrls.rdQLenPdf::29                      0                       # What read queue length does an incoming req see
system.mem_ctrls.rdQLenPdf::30                      0                       # What read queue length does an incoming req see
system.mem_ctrls.rdQLenPdf::31                      0                       # What read queue length does an incoming req see
system.mem_ctrls.wrQLenPdf::0                       0                       # What write queue length does an incoming req see
system.mem_ctrls.wrQLenPdf::1                       0                       # What write queue length does an incoming req see
system.mem_ctrls.wrQLenPdf::2                       0                       # What write queue length does an incoming req see
system.mem_ctrls.wrQLenPdf::3                       0                       # What write queue length does an incoming req see
system.mem_ctrls.wrQLenPdf::4                       0                       # What write queue length does an incoming req see
system.mem_ctrls.wrQLenPdf::5                       0                       # What write queue length does an incoming req see
system.mem_ctrls.wrQLenPdf::6                       0                       # What write queue length does an incoming req see
system.mem_ctrls.wrQLenPdf::7                       0                       # What write queue length does an incoming req see
system.mem_ctrls.wrQLenPdf::8                       0                       # What write queue length does an incoming req see
system.mem_ctrls.wrQLenPdf::9                       0                       # What write queue length does an incoming req see
system.mem_ctrls.wrQLenPdf::10                      0                       # What write queue length does an incoming req see
system.mem_ctrls.wrQLenPdf::11                      0                       # What write queue length does an incoming req see
system.mem_ctrls.wrQLenPdf::12                      0                       # What write queue length does an incoming req see
system.mem_ctrls.wrQLenPdf::13                      0                       # What write queue length does an incoming req see
system.mem_ctrls.wrQLenPdf::14                      0                       # What write queue length does an incoming req see
system.mem_ctrls.wrQLenPdf::15                      0                       # What write queue length does an incoming req see
system.mem_ctrls.wrQLenPdf::16                      0                       # What write queue length does an incoming req see
system.mem_ctrls.wrQLenPdf::17                      0                       # What write queue length does an incoming req see
system.mem_ctrls.wrQLenPdf::18                      0                       # What write queue length does an incoming req see
system.mem_ctrls.wrQLenPdf::19                      0                       # What write queue length does an incoming req see
system.mem_ctrls.wrQLenPdf::20                      0                       # What write queue length does an incoming req see
system.mem_ctrls.wrQLenPdf::21                      0                       # What write queue length does an incoming req see
system.mem_ctrls.wrQLenPdf::22                      0                       # What write queue length does an incoming req see
system.mem_ctrls.wrQLenPdf::23                      0                       # What write queue length does an incoming req see
system.mem_ctrls.wrQLenPdf::24                      0                       # What write queue length does an incoming req see
system.mem_ctrls.wrQLenPdf::25                      0                       # What write queue length does an incoming req see
system.mem_ctrls.wrQLenPdf::26                      0                       # What write queue length does an incoming req see
system.mem_ctrls.wrQLenPdf::27                      0                       # What write queue length does an incoming req see
system.mem_ctrls.wrQLenPdf::28                      0                       # What write queue length does an incoming req see
system.mem_ctrls.wrQLenPdf::29                      0                       # What write queue length does an incoming req see
system.mem_ctrls.wrQLenPdf::30                      0                       # What write queue length does an incoming req see
system.mem_ctrls.wrQLenPdf::31                      0                       # What write queue length does an incoming req see
system.mem_ctrls.wrQLenPdf::32                      0                       # What write queue length does an incoming req see
system.mem_ctrls.wrQLenPdf::33                      0                       # What write queue length does an incoming req see
system.mem_ctrls.wrQLenPdf::34                      0                       # What write queue length does an incoming req see
system.mem_ctrls.wrQLenPdf::35                      0                       # What write queue length does an incoming req see
system.mem_ctrls.wrQLenPdf::36                      0                       # What write queue length does an incoming req see
system.mem_ctrls.wrQLenPdf::37                      0                       # What write queue length does an incoming req see
system.mem_ctrls.wrQLenPdf::38                      0                       # What write queue length does an incoming req see
system.mem_ctrls.wrQLenPdf::39                      0                       # What write queue length does an incoming req see
system.mem_ctrls.wrQLenPdf::40                      0                       # What write queue length does an incoming req see
system.mem_ctrls.wrQLenPdf::41                      0                       # What write queue length does an incoming req see
system.mem_ctrls.wrQLenPdf::42                      0                       # What write queue length does an incoming req see
system.mem_ctrls.wrQLenPdf::43                      0                       # What write queue length does an incoming req see
system.mem_ctrls.wrQLenPdf::44                      0                       # What write queue length does an incoming req see
system.mem_ctrls.wrQLenPdf::45                      0                       # What write queue length does an incoming req see
system.mem_ctrls.wrQLenPdf::46                      0                       # What write queue length does an incoming req see
system.mem_ctrls.wrQLenPdf::47                      0                       # What write queue length does an incoming req see
system.mem_ctrls.wrQLenPdf::48                      0                       # What write queue length does an incoming req see
system.mem_ctrls.wrQLenPdf::49                      0                       # What write queue length does an incoming req see
system.mem_ctrls.wrQLenPdf::50                      0                       # What write queue length does an incoming req see
system.mem_ctrls.wrQLenPdf::51                      0                       # What write queue length does an incoming req see
system.mem_ctrls.wrQLenPdf::52                      0                       # What write queue length does an incoming req see
system.mem_ctrls.wrQLenPdf::53                      0                       # What write queue length does an incoming req see
system.mem_ctrls.wrQLenPdf::54                      0                       # What write queue length does an incoming req see
system.mem_ctrls.wrQLenPdf::55                      0                       # What write queue length does an incoming req see
system.mem_ctrls.wrQLenPdf::56                      0                       # What write queue length does an incoming req see
system.mem_ctrls.wrQLenPdf::57                      0                       # What write queue length does an incoming req see
system.mem_ctrls.wrQLenPdf::58                      0                       # What write queue length does an incoming req see
system.mem_ctrls.wrQLenPdf::59                      0                       # What write queue length does an incoming req see
system.mem_ctrls.wrQLenPdf::60                      0                       # What write queue length does an incoming req see
system.mem_ctrls.wrQLenPdf::61                      0                       # What write queue length does an incoming req see
system.mem_ctrls.wrQLenPdf::62                      0                       # What write queue length does an incoming req see
system.mem_ctrls.wrQLenPdf::63                      0                       # What write queue length does an incoming req see
system.mem_ctrls.bytesPerActivate::samples          710                       # Bytes accessed per row activation
system.mem_ctrls.bytesPerActivate::mean    298.907042                       # Bytes accessed per row activation
system.mem_ctrls.bytesPerActivate::gmean   209.887349                       # Bytes accessed per row activation
system.mem_ctrls.bytesPerActivate::stdev   283.161399                       # Bytes accessed per row activation
system.mem_ctrls.bytesPerActivate::0-127          134     18.87%     18.87% # Bytes accessed per row activation
system.mem_ctrls.bytesPerActivate::128-255          241     33.94%     52.82% # Bytes accessed per row activation
system.mem_ctrls.bytesPerActivate::256-383          194     27.32%     80.14% # Bytes accessed per row activation
system.mem_ctrls.bytesPerActivate::384-511           22      3.10%     83.24% # Bytes accessed per row activation
system.mem_ctrls.bytesPerActivate::512-639           20      2.82%     86.06% # Bytes accessed per row activation
system.mem_ctrls.bytesPerActivate::640-767           17      2.39%     88.45% # Bytes accessed per row activation
system.mem_ctrls.bytesPerActivate::768-895            7      0.99%     89.44% # Bytes accessed per row activation
system.mem_ctrls.bytesPerActivate::896-1023            5      0.70%     90.14% # Bytes accessed per row activation
system.mem_ctrls.bytesPerActivate::1024-1151           70      9.86%    100.00% # Bytes accessed per row activation
system.mem_ctrls.bytesPerActivate::total          710                       # Bytes accessed per row activation
system.mem_ctrls.masterReadBytes::.cpu.inst        53056                       # Per-master bytes read from memory
system.mem_ctrls.masterReadBytes::.cpu.data       160576                       # Per-master bytes read from memory
system.mem_ctrls.masterReadRate::.cpu.inst 28756389.455944932997                       # Per-master bytes read from memory rate (Bytes/sec)
system.mem_ctrls.masterReadRate::.cpu.data 87032305.361840575933                       # Per-master bytes read from memory rate (Bytes/sec)
system.mem_ctrls.masterReadAccesses::.cpu.inst          829                       # Per-master read serviced memory accesses
system.mem_ctrls.masterReadAccesses::.cpu.data         2509                       # Per-master read serviced memory accesses
system.mem_ctrls.masterReadTotalLat::.cpu.inst     26583053                       # Per-master read total memory access latency
system.mem_ctrls.masterReadTotalLat::.cpu.data     92557965                       # Per-master read total memory access latency
system.mem_ctrls.masterReadAvgLat::.cpu.inst     32066.41                       # Per-master read average memory access latency
system.mem_ctrls.masterReadAvgLat::.cpu.data     36890.38                       # Per-master read average memory access latency
system.mem_ctrls.totQLat                     56553518                       # Total ticks spent queuing
system.mem_ctrls.totMemAccLat               119141018                       # Total ticks spent from burst creation until serviced by the DRAM
system.mem_ctrls.totBusLat                   16690000                       # Total ticks spent in databus transfers
system.mem_ctrls.avgQLat                     16942.34                       # Average queueing delay per DRAM burst
system.mem_ctrls.avgBusLat                    5000.00                       # Average bus latency per DRAM burst
system.mem_ctrls.avgMemAccLat                35692.34                       # Average memory access latency per DRAM burst
system.mem_ctrls.avgRdBW                       115.79                       # Average DRAM read bandwidth in MiByte/s
system.mem_ctrls.avgWrBW                         0.00                       # Average achieved write bandwidth in MiByte/s
system.mem_ctrls.avgRdBWSys                    115.79                       # Average system read bandwidth in MiByte/s
system.mem_ctrls.avgWrBWSys                      0.00                       # Average system write bandwidth in MiByte/s
system.mem_ctrls.peakBW                      12800.00                       # Theoretical peak bandwidth in MiByte/s
system.mem_ctrls.busUtil                         0.90                       # Data bus utilization in percentage
system.mem_ctrls.busUtilRead                     0.90                       # Data bus utilization in percentage for reads
system.mem_ctrls.busUtilWrite                    0.00                       # Data bus utilization in percentage for writes
system.mem_ctrls.avgRdQLen                       1.04                       # Average read queue length when enqueuing
system.mem_ctrls.avgWrQLen                       0.00                       # Average write queue length when enqueuing
system.mem_ctrls.readRowHits                     2618                       # Number of row buffer hits during reads
system.mem_ctrls.writeRowHits                       0                       # Number of row buffer hits during writes
system.mem_ctrls.readRowHitRate                 78.43                       # Row buffer hit rate for reads
system.mem_ctrls.writeRowHitRate                  nan                       # Row buffer hit rate for writes
system.mem_ctrls.avgGap                     552704.01                       # Average gap between requests
system.mem_ctrls.pageHitRate                    78.43                       # Row buffer hit rate, read and write combined
system.mem_ctrls_0.actEnergy                  3070200                       # Energy for activate commands per rank (pJ)
system.mem_ctrls_0.preEnergy                  1616670                       # Energy for precharge commands per rank (pJ)
system.mem_ctrls_0.readEnergy                14565600                       # Energy for read commands per rank (pJ)
system.mem_ctrls_0.writeEnergy                      0                       # Energy for write commands per rank (pJ)
system.mem_ctrls_0.refreshEnergy         117396240.000000                       # Energy for refresh commands per rank (pJ)
system.mem_ctrls_0.actBackEnergy             45064770                       # Energy for active background per rank (pJ)
system.mem_ctrls_0.preBackEnergy              4870560                       # Energy for precharge background per rank (pJ)
system.mem_ctrls_0.actPowerDownEnergy       510640770                       # Energy for active power-down per rank (pJ)
system.mem_ctrls_0.prePowerDownEnergy       101244000                       # Energy for precharge power-down per rank (pJ)
system.mem_ctrls_0.selfRefreshEnergy         91737060                       # Energy for self refresh per rank (pJ)
system.mem_ctrls_0.totalEnergy              890205870                       # Total energy per rank (pJ)
system.mem_ctrls_0.averagePower            482.492210                       # Core power per rank (mW)
system.mem_ctrls_0.totalIdleTime           1733318465                       # Total Idle time Per DRAM Rank
system.mem_ctrls_0.memoryStateTime::IDLE      7489945                       # Time in different power states
system.mem_ctrls_0.memoryStateTime::REF      49660000                       # Time in different power states
system.mem_ctrls_0.memoryStateTime::SREF    350024186                       # Time in different power states
system.mem_ctrls_0.memoryStateTime::PRE_PDN    263645905                       # Time in different power states
system.mem_ctrls_0.memoryStateTime::ACT      54387374                       # Time in different power states
system.mem_ctrls_0.memoryStateTime::ACT_PDN   1119808637                       # Time in different power states
system.mem_ctrls_1.actEnergy                  2070600                       # Energy for activate commands per rank (pJ)
system.mem_ctrls_1.preEnergy                  1077780                       # Energy for precharge commands per rank (pJ)
system.mem_ctrls_1.readEnergy                 9267720                       # Energy for read commands per rank (pJ)
system.mem_ctrls_1.writeEnergy                      0                       # Energy for write commands per rank (pJ)
system.mem_ctrls_1.refreshEnergy         53473680.000000                       # Energy for refresh commands per rank (pJ)
system.mem_ctrls_1.actBackEnergy             25349040                       # Energy for active background per rank (pJ)
system.mem_ctrls_1.preBackEnergy              1896000                       # Energy for precharge background per rank (pJ)
system.mem_ctrls_1.actPowerDownEnergy       223023330                       # Energy for active power-down per rank (pJ)
system.mem_ctrls_1.prePowerDownEnergy        50579520                       # Energy for precharge power-down per rank (pJ)
system.mem_ctrls_1.selfRefreshEnergy        283150080                       # Energy for self refresh per rank (pJ)
system.mem_ctrls_1.totalEnergy              649887750                       # Total energy per rank (pJ)
system.mem_ctrls_1.averagePower            352.239619                       # Core power per rank (mW)
system.mem_ctrls_1.totalIdleTime           1784433065                       # Total Idle time Per DRAM Rank
system.mem_ctrls_1.memoryStateTime::IDLE      2481341                       # Time in different power states
system.mem_ctrls_1.memoryStateTime::REF      22620000                       # Time in different power states
system.mem_ctrls_1.memoryStateTime::SREF   1163684498                       # Time in different power states
system.mem_ctrls_1.memoryStateTime::PRE_PDN    131706722                       # Time in different power states
system.mem_ctrls_1.memoryStateTime::ACT      35431687                       # Time in different power states
system.mem_ctrls_1.memoryStateTime::ACT_PDN    489091799                       # Time in different power states
system.pwrStateResidencyTicks::UNDEFINED   1845016047                       # Cumulative time (in ticks) in various power states
system.cpu.branchPred.lookups                 1386338                       # Number of BP lookups
system.cpu.branchPred.condPredicted           1386338                       # Number of conditional branches predicted
system.cpu.branchPred.condIncorrect            119010                       # Number of conditional branches incorrect
system.cpu.branchPred.BTBLookups               799054                       # Number of BTB lookups
system.cpu.branchPred.BTBHits                       0                       # Number of BTB hits
system.cpu.branchPred.BTBCorrect                    0                       # Number of correct BTB predictions (this stat may not work properly.
system.cpu.branchPred.BTBHitPct              0.000000                       # BTB Hit Percentage
system.cpu.branchPred.usedRAS                   19873                       # Number of times the RAS was used to get a target.
system.cpu.branchPred.RASInCorrect               3499                       # Number of incorrect RAS predictions.
system.cpu.branchPred.indirectLookups          799054                       # Number of indirect predictor lookups.
system.cpu.branchPred.indirectHits             409422                       # Number of indirect target hits.
system.cpu.branchPred.indirectMisses           389632                       # Number of indirect misses.
system.cpu.branchPredindirectMispredicted        45007                       # Number of mispredicted indirect branches.
system.cpu_voltage_domain.voltage                   1                       # Voltage in Volts
system.cpu_clk_domain.clock                       667                       # Clock period in ticks
system.cpu.dtb.walker.pwrStateResidencyTicks::UNDEFINED   1845016047                       # Cumulative time (in ticks) in various power states
system.cpu.dtb.rdAccesses                      564556                       # TLB accesses on read requests
system.cpu.dtb.wrAccesses                      398000                       # TLB accesses on write requests
system.cpu.dtb.rdMisses                           503                       # TLB misses on read requests
system.cpu.dtb.wrMisses                            97                       # TLB misses on write requests
system.cpu.apic_clk_domain.clock                10672                       # Clock period in ticks
system.cpu.interrupts.pwrStateResidencyTicks::UNDEFINED   1845016047                       # Cumulative time (in ticks) in various power states
system.cpu.itb.walker.pwrStateResidencyTicks::UNDEFINED   1845016047                       # Cumulative time (in ticks) in various power states
system.cpu.itb.rdAccesses                           0                       # TLB accesses on read requests
system.cpu.itb.wrAccesses                      362611                       # TLB accesses on write requests
system.cpu.itb.rdMisses                             0                       # TLB misses on read requests
system.cpu.itb.wrMisses                           116                       # TLB misses on write requests
system.cpu.workload.numSyscalls                    27                       # Number of system calls
system.cpu.pwrStateResidencyTicks::ON      1845016047                       # Cumulative time (in ticks) in various power states
system.cpu.numCycles                          2766142                       # number of cpu cycles simulated
system.cpu.numWorkItemsStarted                      0                       # number of work items this cpu started
system.cpu.numWorkItemsCompleted                    0                       # number of work items this cpu completed
system.cpu.fetch.icacheStallCycles             439395                       # Number of cycles fetch is stalled on an Icache miss
system.cpu.fetch.Insts                        7921631                       # Number of instructions fetch has processed
system.cpu.fetch.Branches                     1386338                       # Number of branches that fetch encountered
system.cpu.fetch.predictedBranches             429295                       # Number of branches that fetch has predicted taken
system.cpu.fetch.Cycles                       2160133                       # Number of cycles fetch has run and was not squashing or blocked
system.cpu.fetch.SquashCycles                  238200                       # Number of cycles fetch has spent squashing
system.cpu.fetch.TlbCycles                        136                       # Number of cycles fetch has spent waiting for tlb
system.cpu.fetch.MiscStallCycles                   20                       # Number of cycles fetch has spent waiting on interrupts, or bad addresses, or out of MSHRs
system.cpu.fetch.PendingTrapStallCycles           306                       # Number of stall cycles due to pending traps
system.cpu.fetch.PendingQuiesceStallCycles           25                       # Number of stall cycles due to pending quiesce instructions
system.cpu.fetch.IcacheWaitRetryStallCycles           15                       # Number of stall cycles due to full MSHR
system.cpu.fetch.CacheLines                    362568                       # Number of cache lines fetched
system.cpu.fetch.IcacheSquashes                 20165                       # Number of outstanding Icache misses that were squashed
system.cpu.fetch.rateDist::samples            2719130                       # Number of instructions fetched each cycle (Total)
system.cpu.fetch.rateDist::mean              4.628422                       # Number of instructions fetched each cycle (Total)
system.cpu.fetch.rateDist::stdev             3.625610                       # Number of instructions fetched each cycle (Total)
system.cpu.fetch.rateDist::underflows               0      0.00%      0.00% # Number of instructions fetched each cycle (Total)
system.cpu.fetch.rateDist::0                   859202     31.60%     31.60% # Number of instructions fetched each cycle (Total)
system.cpu.fetch.rateDist::1                   114322      4.20%     35.80% # Number of instructions fetched each cycle (Total)
system.cpu.fetch.rateDist::2                    37218      1.37%     37.17% # Number of instructions fetched each cycle (Total)
system.cpu.fetch.rateDist::3                    78495      2.89%     40.06% # Number of instructions fetched each cycle (Total)
system.cpu.fetch.rateDist::4                   112443      4.14%     44.19% # Number of instructions fetched each cycle (Total)
system.cpu.fetch.rateDist::5                    56321      2.07%     46.26% # Number of instructions fetched each cycle (Total)
system.cpu.fetch.rateDist::6                    97308      3.58%     49.84% # Number of instructions fetched each cycle (Total)
system.cpu.fetch.rateDist::7                    64755      2.38%     52.22% # Number of instructions fetched each cycle (Total)
system.cpu.fetch.rateDist::8                  1299066     47.78%    100.00% # Number of instructions fetched each cycle (Total)
system.cpu.fetch.rateDist::overflows                0      0.00%    100.00% # Number of instructions fetched each cycle (Total)
system.cpu.fetch.rateDist::min_value                0                       # Number of instructions fetched each cycle (Total)
system.cpu.fetch.rateDist::max_value                8                       # Number of instructions fetched each cycle (Total)
system.cpu.fetch.rateDist::total              2719130                       # Number of instructions fetched each cycle (Total)
system.cpu.fetch.branchRate                  0.501181                       # Number of branch fetches per cycle
system.cpu.fetch.rate                        2.863783                       # Number of inst fetches per cycle
system.cpu.decode.IdleCycles                   428820                       # Number of cycles decode is idle
system.cpu.decode.BlockedCycles                650928                       # Number of cycles decode is blocked
system.cpu.decode.RunCycles                   1360912                       # Number of cycles decode is running
system.cpu.decode.UnblockCycles                159370                       # Number of cycles decode is unblocking
system.cpu.decode.SquashCycles                 119100                       # Number of cycles decode is squashing
system.cpu.decode.DecodedInsts               11392391                       # Number of instructions handled by decode
system.cpu.rename.SquashCycles                 119100                       # Number of cycles rename is squashing
system.cpu.rename.IdleCycles                   528846                       # Number of cycles rename is idle
system.cpu.rename.BlockCycles                  593416                       # Number of cycles rename is blocking
system.cpu.rename.serializeStallCycles           2364                       # count of cycles rename stalled for serializing inst
system.cpu.rename.RunCycles                   1376713                       # Number of cycles rename is running
system.cpu.rename.UnblockCycles                 98691                       # Number of cycles rename is unblocking
system.cpu.rename.RenamedInsts               10692284                       # Number of instructions processed by rename
system.cpu.rename.ROBFullEvents                  2811                       # Number of times rename has blocked due to ROB full
system.cpu.rename.IQFullEvents                   7985                       # Number of times rename has blocked due to IQ full
system.cpu.rename.LQFullEvents                    426                       # Number of times rename has blocked due to LQ full
system.cpu.rename.SQFullEvents                  42179                       # Number of times rename has blocked due to SQ full
system.cpu.rename.RenamedOperands            13557112                       # Number of destination operands rename has renamed
system.cpu.rename.RenameLookups              25518163                       # Number of register rename lookups that rename has made
system.cpu.rename.int_rename_lookups         15650088                       # Number of integer rename lookups
system.cpu.rename.fp_rename_lookups             59386                       # Number of floating rename lookups
system.cpu.rename.CommittedMaps               6107409                       # Number of HB maps that are committed
system.cpu.rename.UndoneMaps                  7449703                       # Number of HB maps that are undone due to squashing
system.cpu.rename.serializingInsts                 86                       # count of serializing insts renamed
system.cpu.rename.tempSerializingInsts             59                       # count of temporary serializing insts renamed
system.cpu.rename.skidInsts                    417281                       # count of insts added to the skid buffer
system.cpu.memDep0.insertedLoads               708007                       # Number of loads inserted to the mem dependence unit.
system.cpu.memDep0.insertedStores              576994                       # Number of stores inserted to the mem dependence unit.
system.cpu.memDep0.conflictingLoads            100662                       # Number of conflicting loads.
system.cpu.memDep0.conflictingStores            60233                       # Number of conflicting stores.
system.cpu.iq.iqInstsAdded                    9260510                       # Number of instructions added to the IQ (excludes non-spec)
system.cpu.iq.iqNonSpecInstsAdded                  72                       # Number of non-speculative instructions added to the IQ
system.cpu.iq.iqInstsIssued                   7761840                       # Number of instructions issued
system.cpu.iq.iqSquashedInstsIssued            238867                       # Number of squashed instructions issued
system.cpu.iq.iqSquashedInstsExamined         4379412                       # Number of squashed instructions iterated over during squash; mainly for profiling
system.cpu.iq.iqSquashedOperandsExamined      5389746                       # Number of squashed operands that are examined and possibly removed from graph
system.cpu.iq.iqSquashedNonSpecRemoved             45                       # Number of squashed non-spec instructions that were removed
system.cpu.iq.issued_per_cycle::samples       2719130                       # Number of insts issued each cycle
system.cpu.iq.issued_per_cycle::mean         2.854531                       # Number of insts issued each cycle
system.cpu.iq.issued_per_cycle::stdev        2.881332                       # Number of insts issued each cycle
system.cpu.iq.issued_per_cycle::underflows            0      0.00%      0.00% # Number of insts issued each cycle
system.cpu.iq.issued_per_cycle::0             1181539     43.45%     43.45% # Number of insts issued each cycle
system.cpu.iq.issued_per_cycle::1               73296      2.70%     46.15% # Number of insts issued each cycle
system.cpu.iq.issued_per_cycle::2              120035      4.41%     50.56% # Number of insts issued each cycle
system.cpu.iq.issued_per_cycle::3              146623      5.39%     55.96% # Number of insts issued each cycle
system.cpu.iq.issued_per_cycle::4              249771      9.19%     65.14% # Number of insts issued each cycle
system.cpu.iq.issued_per_cycle::5              138988      5.11%     70.25% # Number of insts issued each cycle
system.cpu.iq.issued_per_cycle::6              482599     17.75%     88.00% # Number of insts issued each cycle
system.cpu.iq.issued_per_cycle::7              191245      7.03%     95.03% # Number of insts issued each cycle
system.cpu.iq.issued_per_cycle::8              135034      4.97%    100.00% # Number of insts issued each cycle
system.cpu.iq.issued_per_cycle::overflows            0      0.00%    100.00% # Number of insts issued each cycle
system.cpu.iq.issued_per_cycle::min_value            0                       # Number of insts issued each cycle
system.cpu.iq.issued_per_cycle::max_value            8                       # Number of insts issued each cycle
system.cpu.iq.issued_per_cycle::total         2719130                       # Number of insts issued each cycle
system.cpu.iq.fu_full::No_OpClass                   0      0.00%      0.00% # attempts to use FU when none available
system.cpu.iq.fu_full::IntAlu                  473776     99.72%     99.72% # attempts to use FU when none available
system.cpu.iq.fu_full::IntMult                      0      0.00%     99.72% # attempts to use FU when none available
system.cpu.iq.fu_full::IntDiv                       0      0.00%     99.72% # attempts to use FU when none available
system.cpu.iq.fu_full::FloatAdd                     0      0.00%     99.72% # attempts to use FU when none available
system.cpu.iq.fu_full::FloatCmp                     0      0.00%     99.72% # attempts to use FU when none available
system.cpu.iq.fu_full::FloatCvt                     0      0.00%     99.72% # attempts to use FU when none available
system.cpu.iq.fu_full::FloatMult                    0      0.00%     99.72% # attempts to use FU when none available
system.cpu.iq.fu_full::FloatMultAcc                 0      0.00%     99.72% # attempts to use FU when none available
system.cpu.iq.fu_full::FloatDiv                     0      0.00%     99.72% # attempts to use FU when none available
system.cpu.iq.fu_full::FloatMisc                    0      0.00%     99.72% # attempts to use FU when none available
system.cpu.iq.fu_full::FloatSqrt                    0      0.00%     99.72% # attempts to use FU when none available
system.cpu.iq.fu_full::SimdAdd                      0      0.00%     99.72% # attempts to use FU when none available
system.cpu.iq.fu_full::SimdAddAcc                   0      0.00%     99.72% # attempts to use FU when none available
system.cpu.iq.fu_full::SimdAlu                     16      0.00%     99.72% # attempts to use FU when none available
system.cpu.iq.fu_full::SimdCmp                      0      0.00%     99.72% # attempts to use FU when none available
system.cpu.iq.fu_full::SimdCvt                     12      0.00%     99.72% # attempts to use FU when none available
system.cpu.iq.fu_full::SimdMisc                     2      0.00%     99.72% # attempts to use FU when none available
system.cpu.iq.fu_full::SimdMult                     0      0.00%     99.72% # attempts to use FU when none available
system.cpu.iq.fu_full::SimdMultAcc                  0      0.00%     99.72% # attempts to use FU when none available
system.cpu.iq.fu_full::SimdShift                    1      0.00%     99.72% # attempts to use FU when none available
system.cpu.iq.fu_full::SimdShiftAcc                 0      0.00%     99.72% # attempts to use FU when none available
system.cpu.iq.fu_full::SimdSqrt                     0      0.00%     99.72% # attempts to use FU when none available
system.cpu.iq.fu_full::SimdFloatAdd                 0      0.00%     99.72% # attempts to use FU when none available
system.cpu.iq.fu_full::SimdFloatAlu                 0      0.00%     99.72% # attempts to use FU when none available
system.cpu.iq.fu_full::SimdFloatCmp                 0      0.00%     99.72% # attempts to use FU when none available
system.cpu.iq.fu_full::SimdFloatCvt                 0      0.00%     99.72% # attempts to use FU when none available
system.cpu.iq.fu_full::SimdFloatDiv                 0      0.00%     99.72% # attempts to use FU when none available
system.cpu.iq.fu_full::SimdFloatMisc                0      0.00%     99.72% # attempts to use FU when none available
system.cpu.iq.fu_full::SimdFloatMult                0      0.00%     99.72% # attempts to use FU when none available
system.cpu.iq.fu_full::SimdFloatMultAcc             0      0.00%     99.72% # attempts to use FU when none available
system.cpu.iq.fu_full::SimdFloatSqrt                0      0.00%     99.72% # attempts to use FU when none available
system.cpu.iq.fu_full::SimdAes                      0      0.00%     99.72% # attempts to use FU when none available
system.cpu.iq.fu_full::SimdAesMix                   0      0.00%     99.72% # attempts to use FU when none available
system.cpu.iq.fu_full::SimdSha1Hash                 0      0.00%     99.72% # attempts to use FU when none available
system.cpu.iq.fu_full::SimdSha1Hash2                0      0.00%     99.72% # attempts to use FU when none available
system.cpu.iq.fu_full::SimdSha256Hash               0      0.00%     99.72% # attempts to use FU when none available
system.cpu.iq.fu_full::SimdSha256Hash2              0      0.00%     99.72% # attempts to use FU when none available
system.cpu.iq.fu_full::SimdShaSigma2                0      0.00%     99.72% # attempts to use FU when none available
system.cpu.iq.fu_full::SimdShaSigma3                0      0.00%     99.72% # attempts to use FU when none available
system.cpu.iq.fu_full::MemRead                    647      0.14%     99.86% # attempts to use FU when none available
system.cpu.iq.fu_full::MemWrite                   439      0.09%     99.95% # attempts to use FU when none available
system.cpu.iq.fu_full::FloatMemRead               143      0.03%     99.98% # attempts to use FU when none available
system.cpu.iq.fu_full::FloatMemWrite               85      0.02%    100.00% # attempts to use FU when none available
system.cpu.iq.fu_full::IprAccess                    0      0.00%    100.00% # attempts to use FU when none available
system.cpu.iq.fu_full::InstPrefetch                 0      0.00%    100.00% # attempts to use FU when none available
system.cpu.iq.FU_type_0::No_OpClass             49633      0.64%      0.64% # Type of FU issued
system.cpu.iq.FU_type_0::IntAlu               6682109     86.09%     86.73% # Type of FU issued
system.cpu.iq.FU_type_0::IntMult                   24      0.00%     86.73% # Type of FU issued
system.cpu.iq.FU_type_0::IntDiv                  1159      0.01%     86.74% # Type of FU issued
system.cpu.iq.FU_type_0::FloatAdd                 194      0.00%     86.75% # Type of FU issued
system.cpu.iq.FU_type_0::FloatCmp                   0      0.00%     86.75% # Type of FU issued
system.cpu.iq.FU_type_0::FloatCvt                   0      0.00%     86.75% # Type of FU issued
system.cpu.iq.FU_type_0::FloatMult                  0      0.00%     86.75% # Type of FU issued
system.cpu.iq.FU_type_0::FloatMultAcc               0      0.00%     86.75% # Type of FU issued
system.cpu.iq.FU_type_0::FloatDiv                   0      0.00%     86.75% # Type of FU issued
system.cpu.iq.FU_type_0::FloatMisc                  0      0.00%     86.75% # Type of FU issued
system.cpu.iq.FU_type_0::FloatSqrt                  0      0.00%     86.75% # Type of FU issued
system.cpu.iq.FU_type_0::SimdAdd                  394      0.01%     86.75% # Type of FU issued
system.cpu.iq.FU_type_0::SimdAddAcc                 0      0.00%     86.75% # Type of FU issued
system.cpu.iq.FU_type_0::SimdAlu                  868      0.01%     86.76% # Type of FU issued
system.cpu.iq.FU_type_0::SimdCmp                    6      0.00%     86.76% # Type of FU issued
system.cpu.iq.FU_type_0::SimdCvt                  984      0.01%     86.78% # Type of FU issued
system.cpu.iq.FU_type_0::SimdMisc                 598      0.01%     86.78% # Type of FU issued
system.cpu.iq.FU_type_0::SimdMult                   0      0.00%     86.78% # Type of FU issued
system.cpu.iq.FU_type_0::SimdMultAcc                0      0.00%     86.78% # Type of FU issued
system.cpu.iq.FU_type_0::SimdShift                234      0.00%     86.79% # Type of FU issued
system.cpu.iq.FU_type_0::SimdShiftAcc               0      0.00%     86.79% # Type of FU issued
system.cpu.iq.FU_type_0::SimdSqrt                   0      0.00%     86.79% # Type of FU issued
system.cpu.iq.FU_type_0::SimdFloatAdd               0      0.00%     86.79% # Type of FU issued
system.cpu.iq.FU_type_0::SimdFloatAlu               0      0.00%     86.79% # Type of FU issued
system.cpu.iq.FU_type_0::SimdFloatCmp               0      0.00%     86.79% # Type of FU issued
system.cpu.iq.FU_type_0::SimdFloatCvt               0      0.00%     86.79% # Type of FU issued
system.cpu.iq.FU_type_0::SimdFloatDiv               0      0.00%     86.79% # Type of FU issued
system.cpu.iq.FU_type_0::SimdFloatMisc              0      0.00%     86.79% # Type of FU issued
system.cpu.iq.FU_type_0::SimdFloatMult              0      0.00%     86.79% # Type of FU issued
system.cpu.iq.FU_type_0::SimdFloatMultAcc            0      0.00%     86.79% # Type of FU issued
system.cpu.iq.FU_type_0::SimdFloatSqrt              0      0.00%     86.79% # Type of FU issued
system.cpu.iq.FU_type_0::SimdAes                    0      0.00%     86.79% # Type of FU issued
system.cpu.iq.FU_type_0::SimdAesMix                 0      0.00%     86.79% # Type of FU issued
system.cpu.iq.FU_type_0::SimdSha1Hash               0      0.00%     86.79% # Type of FU issued
system.cpu.iq.FU_type_0::SimdSha1Hash2              0      0.00%     86.79% # Type of FU issued
system.cpu.iq.FU_type_0::SimdSha256Hash             0      0.00%     86.79% # Type of FU issued
system.cpu.iq.FU_type_0::SimdSha256Hash2            0      0.00%     86.79% # Type of FU issued
system.cpu.iq.FU_type_0::SimdShaSigma2              0      0.00%     86.79% # Type of FU issued
system.cpu.iq.FU_type_0::SimdShaSigma3              0      0.00%     86.79% # Type of FU issued
system.cpu.iq.FU_type_0::MemRead               545782      7.03%     93.82% # Type of FU issued
system.cpu.iq.FU_type_0::MemWrite              392699      5.06%     98.88% # Type of FU issued
system.cpu.iq.FU_type_0::FloatMemRead           45343      0.58%     99.46% # Type of FU issued
system.cpu.iq.FU_type_0::FloatMemWrite          41813      0.54%    100.00% # Type of FU issued
system.cpu.iq.FU_type_0::IprAccess                  0      0.00%    100.00% # Type of FU issued
system.cpu.iq.FU_type_0::InstPrefetch               0      0.00%    100.00% # Type of FU issued
system.cpu.iq.FU_type_0::total                7761840                       # Type of FU issued
system.cpu.iq.rate                           2.806016                       # Inst issue rate
system.cpu.iq.fu_busy_cnt                      475121                       # FU busy when requested
system.cpu.iq.fu_busy_rate                   0.061212                       # FU busy rate (busy events/executed inst)
system.cpu.iq.int_inst_queue_reads           18775455                       # Number of integer instruction queue reads
system.cpu.iq.int_inst_queue_writes          13529797                       # Number of integer instruction queue writes
system.cpu.iq.int_inst_queue_wakeup_accesses      7393668                       # Number of integer instruction queue wakeup accesses
system.cpu.iq.fp_inst_queue_reads              181343                       # Number of floating instruction queue reads
system.cpu.iq.fp_inst_queue_writes             110290                       # Number of floating instruction queue writes
system.cpu.iq.fp_inst_queue_wakeup_accesses        87132                       # Number of floating instruction queue wakeup accesses
system.cpu.iq.vec_inst_queue_reads                  0                       # Number of vector instruction queue reads
system.cpu.iq.vec_inst_queue_writes                 0                       # Number of vector instruction queue writes
system.cpu.iq.vec_inst_queue_wakeup_accesses            0                       # Number of vector instruction queue wakeup accesses
system.cpu.iq.int_alu_accesses                8096571                       # Number of integer alu accesses
system.cpu.iq.fp_alu_accesses                   90757                       # Number of floating point alu accesses
system.cpu.iq.vec_alu_accesses                      0                       # Number of vector alu accesses
system.cpu.iew.lsq.thread0.forwLoads            28753                       # Number of loads that had data forwarded from stores
system.cpu.iew.lsq.thread0.invAddrLoads             0                       # Number of loads ignored due to an invalid address
system.cpu.iew.lsq.thread0.squashedLoads       288604                       # Number of loads squashed
system.cpu.iew.lsq.thread0.ignoredResponses          121                       # Number of memory responses ignored because the instruction is squashed
system.cpu.iew.lsq.thread0.memOrderViolation           96                       # Number of memory ordering violations
system.cpu.iew.lsq.thread0.squashedStores       268456                       # Number of stores squashed
system.cpu.iew.lsq.thread0.invAddrSwpfs             0                       # Number of software prefetches ignored due to an invalid address
system.cpu.iew.lsq.thread0.blockedLoads             0                       # Number of blocked loads due to partial load-store forwarding
system.cpu.iew.lsq.thread0.rescheduledLoads            8                       # Number of loads that were rescheduled
system.cpu.iew.lsq.thread0.cacheBlocked           237                       # Number of times an access to memory failed due to the cache being blocked
system.cpu.iew.iewIdleCycles                        0                       # Number of cycles IEW is idle
system.cpu.iew.iewSquashCycles                 119100                       # Number of cycles IEW is squashing
system.cpu.iew.iewBlockCycles                  543759                       # Number of cycles IEW is blocking
system.cpu.iew.iewUnblockCycles                  5524                       # Number of cycles IEW is unblocking
system.cpu.iew.iewDispatchedInsts             9260582                       # Number of instructions dispatched to IQ
system.cpu.iew.iewDispSquashedInsts              7321                       # Number of squashed instructions skipped by dispatch
system.cpu.iew.iewDispLoadInsts                708007                       # Number of dispatched load instructions
system.cpu.iew.iewDispStoreInsts               576994                       # Number of dispatched store instructions
system.cpu.iew.iewDispNonSpecInsts                 55                       # Number of dispatched non-speculative instructions
system.cpu.iew.iewIQFullEvents                    638                       # Number of times the IQ has become full, causing a stall
system.cpu.iew.iewLSQFullEvents                  4627                       # Number of times the LSQ has become full, causing a stall
system.cpu.iew.memOrderViolationEvents             96                       # Number of memory order violations
system.cpu.iew.predictedTakenIncorrect          47405                       # Number of branches that were predicted taken incorrectly
system.cpu.iew.predictedNotTakenIncorrect        87520                       # Number of branches that were predicted not taken incorrectly
system.cpu.iew.branchMispredicts               134925                       # Number of branch mispredicts detected at execute
system.cpu.iew.iewExecutedInsts               7569169                       # Number of executed instructions
system.cpu.iew.iewExecLoadInsts                564531                       # Number of load instructions executed
system.cpu.iew.iewExecSquashedInsts            192671                       # Number of squashed instructions skipped in execute
system.cpu.iew.exec_swp                             0                       # number of swp insts executed
system.cpu.iew.exec_nop                             0                       # number of nop insts executed
system.cpu.iew.exec_refs                       962529                       # number of memory reference insts executed
system.cpu.iew.exec_branches                   783128                       # Number of branches executed
system.cpu.iew.exec_stores                     397998                       # Number of stores executed
system.cpu.iew.exec_rate                     2.736363                       # Inst execution rate
system.cpu.iew.wb_sent                        7531192                       # cumulative count of insts sent to commit
system.cpu.iew.wb_count                       7480800                       # cumulative count of insts written-back
system.cpu.iew.wb_producers                   5453090                       # num instructions producing a value
system.cpu.iew.wb_consumers                   7982728                       # num instructions consuming a value
system.cpu.iew.wb_rate                       2.704416                       # insts written-back per cycle
system.cpu.iew.wb_fanout                     0.683111                       # average fanout of values written-back
system.cpu.commit.commitSquashedInsts         4379487                       # The number of squashed insts skipped by commit
system.cpu.commit.commitNonSpecStalls              27                       # The number of times commit has been forced to stall to communicate backwards
system.cpu.commit.branchMispredicts            119028                       # The number of times a branch was mispredicted
system.cpu.commit.committed_per_cycle::samples      2097927                       # Number of insts commited each cycle
system.cpu.commit.committed_per_cycle::mean     2.326663                       # Number of insts commited each cycle
system.cpu.commit.committed_per_cycle::stdev     2.933840                       # Number of insts commited each cycle
system.cpu.commit.committed_per_cycle::underflows            0      0.00%      0.00% # Number of insts commited each cycle
system.cpu.commit.committed_per_cycle::0       943272     44.96%     44.96% # Number of insts commited each cycle
system.cpu.commit.committed_per_cycle::1       259166     12.35%     57.32% # Number of insts commited each cycle
system.cpu.commit.committed_per_cycle::2       183646      8.75%     66.07% # Number of insts commited each cycle
system.cpu.commit.committed_per_cycle::3       149107      7.11%     73.18% # Number of insts commited each cycle
system.cpu.commit.committed_per_cycle::4        85256      4.06%     77.24% # Number of insts commited each cycle
system.cpu.commit.committed_per_cycle::5        55808      2.66%     79.90% # Number of insts commited each cycle
system.cpu.commit.committed_per_cycle::6        61644      2.94%     82.84% # Number of insts commited each cycle
system.cpu.commit.committed_per_cycle::7        62762      2.99%     85.83% # Number of insts commited each cycle
system.cpu.commit.committed_per_cycle::8       297266     14.17%    100.00% # Number of insts commited each cycle
system.cpu.commit.committed_per_cycle::overflows            0      0.00%    100.00% # Number of insts commited each cycle
system.cpu.commit.committed_per_cycle::min_value            0                       # Number of insts commited each cycle
system.cpu.commit.committed_per_cycle::max_value            8                       # Number of insts commited each cycle
system.cpu.commit.committed_per_cycle::total      2097927                       # Number of insts commited each cycle
system.cpu.commit.committedInsts              2993062                       # Number of instructions committed
system.cpu.commit.committedOps                4881169                       # Number of ops (including micro ops) committed
system.cpu.commit.swp_count                         0                       # Number of s/w prefetches committed
system.cpu.commit.refs                         727941                       # Number of memory references committed
system.cpu.commit.loads                        419403                       # Number of loads committed
system.cpu.commit.membars                           0                       # Number of memory barriers committed
system.cpu.commit.branches                     542927                       # Number of branches committed
system.cpu.commit.vec_insts                         0                       # Number of committed Vector instructions.
system.cpu.commit.fp_insts                      84924                       # Number of committed floating point instructions.
system.cpu.commit.int_insts                   4862924                       # Number of committed integer instructions.
system.cpu.commit.function_calls                 8778                       # Number of function calls committed.
system.cpu.commit.op_class_0::No_OpClass        16513      0.34%      0.34% # Class of committed instruction
system.cpu.commit.op_class_0::IntAlu          4133662     84.69%     85.02% # Class of committed instruction
system.cpu.commit.op_class_0::IntMult              11      0.00%     85.02% # Class of committed instruction
system.cpu.commit.op_class_0::IntDiv             1083      0.02%     85.05% # Class of committed instruction
system.cpu.commit.op_class_0::FloatAdd             18      0.00%     85.05% # Class of committed instruction
system.cpu.commit.op_class_0::FloatCmp              0      0.00%     85.05% # Class of committed instruction
system.cpu.commit.op_class_0::FloatCvt              0      0.00%     85.05% # Class of committed instruction
system.cpu.commit.op_class_0::FloatMult             0      0.00%     85.05% # Class of committed instruction
system.cpu.commit.op_class_0::FloatMultAcc            0      0.00%     85.05% # Class of committed instruction
system.cpu.commit.op_class_0::FloatDiv              0      0.00%     85.05% # Class of committed instruction
system.cpu.commit.op_class_0::FloatMisc             0      0.00%     85.05% # Class of committed instruction
system.cpu.commit.op_class_0::FloatSqrt             0      0.00%     85.05% # Class of committed instruction
system.cpu.commit.op_class_0::SimdAdd             284      0.01%     85.05% # Class of committed instruction
system.cpu.commit.op_class_0::SimdAddAcc            0      0.00%     85.05% # Class of committed instruction
system.cpu.commit.op_class_0::SimdAlu             403      0.01%     85.06% # Class of committed instruction
system.cpu.commit.op_class_0::SimdCmp               6      0.00%     85.06% # Class of committed instruction
system.cpu.commit.op_class_0::SimdCvt             664      0.01%     85.07% # Class of committed instruction
system.cpu.commit.op_class_0::SimdMisc            482      0.01%     85.08% # Class of committed instruction
system.cpu.commit.op_class_0::SimdMult              0      0.00%     85.08% # Class of committed instruction
system.cpu.commit.op_class_0::SimdMultAcc            0      0.00%     85.08% # Class of committed instruction
system.cpu.commit.op_class_0::SimdShift           102      0.00%     85.09% # Class of committed instruction
system.cpu.commit.op_class_0::SimdShiftAcc            0      0.00%     85.09% # Class of committed instruction
system.cpu.commit.op_class_0::SimdSqrt              0      0.00%     85.09% # Class of committed instruction
system.cpu.commit.op_class_0::SimdFloatAdd            0      0.00%     85.09% # Class of committed instruction
system.cpu.commit.op_class_0::SimdFloatAlu            0      0.00%     85.09% # Class of committed instruction
system.cpu.commit.op_class_0::SimdFloatCmp            0      0.00%     85.09% # Class of committed instruction
system.cpu.commit.op_class_0::SimdFloatCvt            0      0.00%     85.09% # Class of committed instruction
system.cpu.commit.op_class_0::SimdFloatDiv            0      0.00%     85.09% # Class of committed instruction
system.cpu.commit.op_class_0::SimdFloatMisc            0      0.00%     85.09% # Class of committed instruction
system.cpu.commit.op_class_0::SimdFloatMult            0      0.00%     85.09% # Class of committed instruction
system.cpu.commit.op_class_0::SimdFloatMultAcc            0      0.00%     85.09% # Class of committed instruction
system.cpu.commit.op_class_0::SimdFloatSqrt            0      0.00%     85.09% # Class of committed instruction
system.cpu.commit.op_class_0::SimdAes               0      0.00%     85.09% # Class of committed instruction
system.cpu.commit.op_class_0::SimdAesMix            0      0.00%     85.09% # Class of committed instruction
system.cpu.commit.op_class_0::SimdSha1Hash            0      0.00%     85.09% # Class of committed instruction
system.cpu.commit.op_class_0::SimdSha1Hash2            0      0.00%     85.09% # Class of committed instruction
system.cpu.commit.op_class_0::SimdSha256Hash            0      0.00%     85.09% # Class of committed instruction
system.cpu.commit.op_class_0::SimdSha256Hash2            0      0.00%     85.09% # Class of committed instruction
system.cpu.commit.op_class_0::SimdShaSigma2            0      0.00%     85.09% # Class of committed instruction
system.cpu.commit.op_class_0::SimdShaSigma3            0      0.00%     85.09% # Class of committed instruction
system.cpu.commit.op_class_0::MemRead          377781      7.74%     92.83% # Class of committed instruction
system.cpu.commit.op_class_0::MemWrite         267242      5.47%     98.30% # Class of committed instruction
system.cpu.commit.op_class_0::FloatMemRead        41622      0.85%     99.15% # Class of committed instruction
system.cpu.commit.op_class_0::FloatMemWrite        41296      0.85%    100.00% # Class of committed instruction
system.cpu.commit.op_class_0::IprAccess             0      0.00%    100.00% # Class of committed instruction
system.cpu.commit.op_class_0::InstPrefetch            0      0.00%    100.00% # Class of committed instruction
system.cpu.commit.op_class_0::total           4881169                       # Class of committed instruction
system.cpu.commit.bw_lim_events                297266                       # number cycles where commit BW limit reached
system.cpu.rob.rob_reads                     11061317                       # The number of ROB reads
system.cpu.rob.rob_writes                    19150710                       # The number of ROB writes
system.cpu.timesIdled                             512                       # Number of times that the entire CPU went into an idle state and unscheduled itself
system.cpu.idleCycles                           47012                       # Total number of cycles that the CPU has spent unscheduled due to idling
system.cpu.committedInsts                     2993062                       # Number of Instructions Simulated
system.cpu.committedOps                       4881169                       # Number of Ops (including micro ops) Simulated
system.cpu.cpi                               0.924185                       # CPI: Cycles Per Instruction
system.cpu.cpi_total                         0.924185                       # CPI: Total CPI of All Threads
system.cpu.ipc                               1.082035                       # IPC: Instructions Per Cycle
system.cpu.ipc_total                         1.082035                       # IPC: Total IPC of All Threads
system.cpu.int_regfile_reads                 10305648                       # number of integer regfile reads
system.cpu.int_regfile_writes                 6259446                       # number of integer regfile writes
system.cpu.fp_regfile_reads                     48420                       # number of floating regfile reads
system.cpu.fp_regfile_writes                    46109                       # number of floating regfile writes
system.cpu.cc_regfile_reads                   3588113                       # number of cc regfile reads
system.cpu.cc_regfile_writes                  3245687                       # number of cc regfile writes
system.cpu.misc_regfile_reads                 2667073                       # number of misc regfile reads
system.cpu.dcache.tags.pwrStateResidencyTicks::UNDEFINED   1845016047                       # Cumulative time (in ticks) in various power states
system.cpu.dcache.tags.tagsinuse           964.149160                       # Cycle average of tags in use
system.cpu.dcache.tags.total_refs              837706                       # Total number of references to valid blocks.
system.cpu.dcache.tags.sampled_refs              3423                       # Sample count of references to valid blocks.
system.cpu.dcache.tags.avg_refs            244.728601                       # Average number of references to valid blocks.
system.cpu.dcache.tags.warmup_cycle            186093                       # Cycle when the warmup percentage was hit.
system.cpu.dcache.tags.occ_blocks::.cpu.data   964.149160                       # Average occupied blocks per requestor
system.cpu.dcache.tags.occ_percent::.cpu.data     0.941552                       # Average percentage of cache occupancy
system.cpu.dcache.tags.occ_percent::total     0.941552                       # Average percentage of cache occupancy
system.cpu.dcache.tags.occ_task_id_blocks::1024          975                       # Occupied blocks per task id
system.cpu.dcache.tags.age_task_id_blocks_1024::0          132                       # Occupied blocks per task id
system.cpu.dcache.tags.age_task_id_blocks_1024::1          176                       # Occupied blocks per task id
system.cpu.dcache.tags.age_task_id_blocks_1024::2          421                       # Occupied blocks per task id
system.cpu.dcache.tags.age_task_id_blocks_1024::3          246                       # Occupied blocks per task id
system.cpu.dcache.tags.occ_task_id_percent::1024     0.952148                       # Percentage of cache occupancy per task id
system.cpu.dcache.tags.tag_accesses           6752775                       # Number of tag accesses
system.cpu.dcache.tags.data_accesses          6752775                       # Number of data accesses
system.cpu.dcache.pwrStateResidencyTicks::UNDEFINED   1845016047                       # Cumulative time (in ticks) in various power states
system.cpu.dcache.ReadReq_hits::.cpu.data       527227                       # number of ReadReq hits
system.cpu.dcache.ReadReq_hits::total          527227                       # number of ReadReq hits
system.cpu.dcache.WriteReq_hits::.cpu.data       307056                       # number of WriteReq hits
system.cpu.dcache.WriteReq_hits::total         307056                       # number of WriteReq hits
system.cpu.dcache.demand_hits::.cpu.data       834283                       # number of demand (read+write) hits
system.cpu.dcache.demand_hits::total           834283                       # number of demand (read+write) hits
system.cpu.dcache.overall_hits::.cpu.data       834283                       # number of overall hits
system.cpu.dcache.overall_hits::total          834283                       # number of overall hits
system.cpu.dcache.ReadReq_misses::.cpu.data         7904                       # number of ReadReq misses
system.cpu.dcache.ReadReq_misses::total          7904                       # number of ReadReq misses
system.cpu.dcache.WriteReq_misses::.cpu.data         1482                       # number of WriteReq misses
system.cpu.dcache.WriteReq_misses::total         1482                       # number of WriteReq misses
system.cpu.dcache.demand_misses::.cpu.data         9386                       # number of demand (read+write) misses
system.cpu.dcache.demand_misses::total           9386                       # number of demand (read+write) misses
system.cpu.dcache.overall_misses::.cpu.data         9386                       # number of overall misses
system.cpu.dcache.overall_misses::total          9386                       # number of overall misses
system.cpu.dcache.ReadReq_miss_latency::.cpu.data    499374896                       # number of ReadReq miss cycles
system.cpu.dcache.ReadReq_miss_latency::total    499374896                       # number of ReadReq miss cycles
system.cpu.dcache.WriteReq_miss_latency::.cpu.data    101578097                       # number of WriteReq miss cycles
system.cpu.dcache.WriteReq_miss_latency::total    101578097                       # number of WriteReq miss cycles
system.cpu.dcache.demand_miss_latency::.cpu.data    600952993                       # number of demand (read+write) miss cycles
system.cpu.dcache.demand_miss_latency::total    600952993                       # number of demand (read+write) miss cycles
system.cpu.dcache.overall_miss_latency::.cpu.data    600952993                       # number of overall miss cycles
system.cpu.dcache.overall_miss_latency::total    600952993                       # number of overall miss cycles
system.cpu.dcache.ReadReq_accesses::.cpu.data       535131                       # number of ReadReq accesses(hits+misses)
system.cpu.dcache.ReadReq_accesses::total       535131                       # number of ReadReq accesses(hits+misses)
[...]
system.l2.WritebackClean_accesses::total          105                       # number of WritebackClean accesses(hits+misses)
system.l2.ReadExReq_accesses::.cpu.data          1476                       # number of ReadExReq accesses(hits+misses)
system.l2.ReadExReq_accesses::total              1476                       # number of ReadExReq accesses(hits+misses)
system.l2.ReadCleanReq_accesses::.cpu.inst          841                       # number of ReadCleanReq accesses(hits+misses)
system.l2.ReadCleanReq_accesses::total            841                       # number of ReadCleanReq accesses(hits+misses)
system.l2.ReadSharedReq_accesses::.cpu.data         1947                       # number of ReadSharedReq accesses(hits+misses)
system.l2.ReadSharedReq_accesses::total          1947                       # number of ReadSharedReq accesses(hits+misses)
system.l2.demand_accesses::.cpu.inst              841                       # number of demand (read+write) accesses
system.l2.demand_accesses::.cpu.data             3423                       # number of demand (read+write) accesses
system.l2.demand_accesses::total                 4264                       # number of demand (read+write) accesses
system.l2.overall_accesses::.cpu.inst             841                       # number of overall (read+write) accesses
system.l2.overall_accesses::.cpu.data            3423                       # number of overall (read+write) accesses
system.l2.overall_accesses::total                4264                       # number of overall (read+write) accesses
system.l2.ReadExReq_miss_rate::.cpu.data     0.627371                       # miss rate for ReadExReq accesses
system.l2.ReadExReq_miss_rate::total         0.627371                       # miss rate for ReadExReq accesses
system.l2.ReadCleanReq_miss_rate::.cpu.inst     0.985731                       # miss rate for ReadCleanReq accesses
system.l2.ReadCleanReq_miss_rate::total      0.985731                       # miss rate for ReadCleanReq accesses
system.l2.ReadSharedReq_miss_rate::.cpu.data     0.813046                       # miss rate for ReadSharedReq accesses
system.l2.ReadSharedReq_miss_rate::total     0.813046                       # miss rate for ReadSharedReq accesses
system.l2.demand_miss_rate::.cpu.inst        0.985731                       # miss rate for demand accesses
system.l2.demand_miss_rate::.cpu.data        0.732983                       # miss rate for demand accesses
system.l2.demand_miss_rate::total            0.782833                       # miss rate for demand accesses
system.l2.overall_miss_rate::.cpu.inst       0.985731                       # miss rate for overall accesses
system.l2.overall_miss_rate::.cpu.data       0.732983                       # miss rate for overall accesses
system.l2.overall_miss_rate::total           0.782833                       # miss rate for overall accesses
system.l2.ReadExReq_avg_miss_latency::.cpu.data 95660.477322                       # average ReadExReq miss latency
system.l2.ReadExReq_avg_miss_latency::total 95660.477322                       # average ReadExReq miss latency
system.l2.ReadCleanReq_avg_miss_latency::.cpu.inst 86583.680338                       # average ReadCleanReq miss latency
system.l2.ReadCleanReq_avg_miss_latency::total 86583.680338                       # average ReadCleanReq miss latency
system.l2.ReadSharedReq_avg_miss_latency::.cpu.data 88887.546431                       # average ReadSharedReq miss latency
system.l2.ReadSharedReq_avg_miss_latency::total 88887.546431                       # average ReadSharedReq miss latency
system.l2.demand_avg_miss_latency::.cpu.inst 86583.680338                       # average overall miss latency
system.l2.demand_avg_miss_latency::.cpu.data 91387.241132                       # average overall miss latency
system.l2.demand_avg_miss_latency::total 90194.265728                       # average overall miss latency
system.l2.overall_avg_miss_latency::.cpu.inst 86583.680338                       # average overall miss latency
system.l2.overall_avg_miss_latency::.cpu.data 91387.241132                       # average overall miss latency
system.l2.overall_avg_miss_latency::total 90194.265728                       # average overall miss latency
system.l2.blocked_cycles::no_mshrs                  0                       # number of cycles access was blocked
system.l2.blocked_cycles::no_targets                0                       # number of cycles access was blocked
system.l2.blocked::no_mshrs                         0                       # number of cycles access was blocked
system.l2.blocked::no_targets                       0                       # number of cycles access was blocked
system.l2.avg_blocked_cycles::no_mshrs            nan                       # average number of cycles each access was blocked
system.l2.avg_blocked_cycles::no_targets          nan                       # average number of cycles each access was blocked
system.l2.ReadExReq_mshr_misses::.cpu.data          926                       # number of ReadExReq MSHR misses
system.l2.ReadExReq_mshr_misses::total            926                       # number of ReadExReq MSHR misses
system.l2.ReadCleanReq_mshr_misses::.cpu.inst          829                       # number of ReadCleanReq MSHR misses
system.l2.ReadCleanReq_mshr_misses::total          829                       # number of ReadCleanReq MSHR misses
system.l2.ReadSharedReq_mshr_misses::.cpu.data         1583                       # number of ReadSharedReq MSHR misses
system.l2.ReadSharedReq_mshr_misses::total         1583                       # number of ReadSharedReq MSHR misses
system.l2.demand_mshr_misses::.cpu.inst           829                       # number of demand (read+write) MSHR misses
system.l2.demand_mshr_misses::.cpu.data          2509                       # number of demand (read+write) MSHR misses
system.l2.demand_mshr_misses::total              3338                       # number of demand (read+write) MSHR misses
system.l2.overall_mshr_misses::.cpu.inst          829                       # number of overall MSHR misses
system.l2.overall_mshr_misses::.cpu.data         2509                       # number of overall MSHR misses
system.l2.overall_mshr_misses::total             3338                       # number of overall MSHR misses
system.l2.ReadExReq_mshr_miss_latency::.cpu.data     76228762                       # number of ReadExReq MSHR miss cycles
system.l2.ReadExReq_mshr_miss_latency::total     76228762                       # number of ReadExReq MSHR miss cycles
system.l2.ReadCleanReq_mshr_miss_latency::.cpu.inst     60719011                       # number of ReadCleanReq MSHR miss cycles
system.l2.ReadCleanReq_mshr_miss_latency::total     60719011                       # number of ReadCleanReq MSHR miss cycles
system.l2.ReadSharedReq_mshr_miss_latency::.cpu.data    119591766                       # number of ReadSharedReq MSHR miss cycles
system.l2.ReadSharedReq_mshr_miss_latency::total    119591766                       # number of ReadSharedReq MSHR miss cycles
system.l2.demand_mshr_miss_latency::.cpu.inst     60719011                       # number of demand (read+write) MSHR miss cycles
system.l2.demand_mshr_miss_latency::.cpu.data    195820528                       # number of demand (read+write) MSHR miss cycles
system.l2.demand_mshr_miss_latency::total    256539539                       # number of demand (read+write) MSHR miss cycles
system.l2.overall_mshr_miss_latency::.cpu.inst     60719011                       # number of overall MSHR miss cycles
system.l2.overall_mshr_miss_latency::.cpu.data    195820528                       # number of overall MSHR miss cycles
system.l2.overall_mshr_miss_latency::total    256539539                       # number of overall MSHR miss cycles
system.l2.ReadExReq_mshr_miss_rate::.cpu.data     0.627371                       # mshr miss rate for ReadExReq accesses
system.l2.ReadExReq_mshr_miss_rate::total     0.627371                       # mshr miss rate for ReadExReq accesses
system.l2.ReadCleanReq_mshr_miss_rate::.cpu.inst     0.985731                       # mshr miss rate for ReadCleanReq accesses
system.l2.ReadCleanReq_mshr_miss_rate::total     0.985731                       # mshr miss rate for ReadCleanReq accesses
system.l2.ReadSharedReq_mshr_miss_rate::.cpu.data     0.813046                       # mshr miss rate for ReadSharedReq accesses
system.l2.ReadSharedReq_mshr_miss_rate::total     0.813046                       # mshr miss rate for ReadSharedReq accesses
system.l2.demand_mshr_miss_rate::.cpu.inst     0.985731                       # mshr miss rate for demand accesses
system.l2.demand_mshr_miss_rate::.cpu.data     0.732983                       # mshr miss rate for demand accesses
system.l2.demand_mshr_miss_rate::total       0.782833                       # mshr miss rate for demand accesses
system.l2.overall_mshr_miss_rate::.cpu.inst     0.985731                       # mshr miss rate for overall accesses
system.l2.overall_mshr_miss_rate::.cpu.data     0.732983                       # mshr miss rate for overall accesses
system.l2.overall_mshr_miss_rate::total      0.782833                       # mshr miss rate for overall accesses
system.l2.ReadExReq_avg_mshr_miss_latency::.cpu.data 82320.477322                       # average ReadExReq mshr miss latency
system.l2.ReadExReq_avg_mshr_miss_latency::total 82320.477322                       # average ReadExReq mshr miss latency
system.l2.ReadCleanReq_avg_mshr_miss_latency::.cpu.inst 73243.680338                       # average ReadCleanReq mshr miss latency
system.l2.ReadCleanReq_avg_mshr_miss_latency::total 73243.680338                       # average ReadCleanReq mshr miss latency
system.l2.ReadSharedReq_avg_mshr_miss_latency::.cpu.data 75547.546431                       # average ReadSharedReq mshr miss latency
system.l2.ReadSharedReq_avg_mshr_miss_latency::total 75547.546431                       # average ReadSharedReq mshr miss latency
system.l2.demand_avg_mshr_miss_latency::.cpu.inst 73243.680338                       # average overall mshr miss latency
system.l2.demand_avg_mshr_miss_latency::.cpu.data 78047.241132                       # average overall mshr miss latency
system.l2.demand_avg_mshr_miss_latency::total 76854.265728                       # average overall mshr miss latency
system.l2.overall_avg_mshr_miss_latency::.cpu.inst 73243.680338                       # average overall mshr miss latency
system.l2.overall_avg_mshr_miss_latency::.cpu.data 78047.241132                       # average overall mshr miss latency
system.l2.overall_avg_mshr_miss_latency::total 76854.265728                       # average overall mshr miss latency
system.l2.replacements                              0                       # number of replacements
system.membus.snoop_filter.tot_requests          3338                       # Total number of requests made to the snoop filter.
system.membus.snoop_filter.hit_single_requests            0                       # Number of requests hitting in the snoop filter with a single holder of the requested data.
system.membus.snoop_filter.hit_multi_requests            0                       # Number of requests hitting in the snoop filter with multiple (>1) holders of the requested data.
system.membus.snoop_filter.tot_snoops               0                       # Total number of snoops made to the snoop filter.
system.membus.snoop_filter.hit_single_snoops            0                       # Number of snoops hitting in the snoop filter with a single holder of the requested data.
system.membus.snoop_filter.hit_multi_snoops            0                       # Number of snoops hitting in the snoop filter with multiple (>1) holders of the requested data.
system.membus.pwrStateResidencyTicks::UNDEFINED   1845016047                       # Cumulative time (in ticks) in various power states
system.membus.trans_dist::ReadResp               2412                       # Transaction distribution
system.membus.trans_dist::ReadExReq               926                       # Transaction distribution
system.membus.trans_dist::ReadExResp              926                       # Transaction distribution
system.membus.trans_dist::ReadSharedReq          2412                       # Transaction distribution
system.membus.pkt_count_system.l2.mem_side::system.mem_ctrls.port         6676                       # Packet count per connected master and slave (bytes)
system.membus.pkt_count_system.l2.mem_side::total         6676                       # Packet count per connected master and slave (bytes)
system.membus.pkt_count::total                   6676                       # Packet count per connected master and slave (bytes)
system.membus.pkt_size_system.l2.mem_side::system.mem_ctrls.port       213632                       # Cumulative packet size per connected master and slave (bytes)
system.membus.pkt_size_system.l2.mem_side::total       213632                       # Cumulative packet size per connected master and slave (bytes)
system.membus.pkt_size::total                  213632                       # Cumulative packet size per connected master and slave (bytes)
system.membus.snoops                                0                       # Total snoops (count)
system.membus.snoopTraffic                          0                       # Total snoop traffic (bytes)
system.membus.snoop_fanout::samples              3338                       # Request fanout histogram
system.membus.snoop_fanout::mean                    0                       # Request fanout histogram
system.membus.snoop_fanout::stdev                   0                       # Request fanout histogram
system.membus.snoop_fanout::underflows              0      0.00%      0.00% # Request fanout histogram
system.membus.snoop_fanout::0                    3338    100.00%    100.00% # Request fanout histogram
system.membus.snoop_fanout::1                       0      0.00%    100.00% # Request fanout histogram
system.membus.snoop_fanout::overflows               0      0.00%    100.00% # Request fanout histogram
system.membus.snoop_fanout::min_value               0                       # Request fanout histogram
system.membus.snoop_fanout::max_value               0                       # Request fanout histogram
system.membus.snoop_fanout::total                3338                       # Request fanout histogram
system.membus.reqLayer2.occupancy             2226446                       # Layer occupancy (ticks)
system.membus.reqLayer2.utilization               0.1                       # Layer utilization (%)
system.membus.respLayer1.occupancy           12750925                       # Layer occupancy (ticks)
system.membus.respLayer1.utilization              0.7                       # Layer utilization (%)
system.tol2bus.snoop_filter.tot_requests         6818                       # Total number of requests made to the snoop filter.
system.tol2bus.snoop_filter.hit_single_requests         2554                       # Number of requests hitting in the snoop filter with a single holder of the requested data.
system.tol2bus.snoop_filter.hit_multi_requests            8                       # Number of requests hitting in the snoop filter with multiple (>1) holders of the requested data.
system.tol2bus.snoop_filter.tot_snoops              0                       # Total number of snoops made to the snoop filter.
system.tol2bus.snoop_filter.hit_single_snoops            0                       # Number of snoops hitting in the snoop filter with a single holder of the requested data.
system.tol2bus.snoop_filter.hit_multi_snoops            0                       # Number of snoops hitting in the snoop filter with multiple (>1) holders of the requested data.
system.tol2bus.pwrStateResidencyTicks::UNDEFINED   1845016047                       # Cumulative time (in ticks) in various power states
system.tol2bus.trans_dist::ReadResp              2788                       # Transaction distribution
system.tol2bus.trans_dist::WritebackDirty         1366                       # Transaction distribution
system.tol2bus.trans_dist::WritebackClean          106                       # Transaction distribution
system.tol2bus.trans_dist::CleanEvict            1082                       # Transaction distribution
system.tol2bus.trans_dist::ReadExReq             1476                       # Transaction distribution
system.tol2bus.trans_dist::ReadExResp            1476                       # Transaction distribution
system.tol2bus.trans_dist::ReadCleanReq           841                       # Transaction distribution
system.tol2bus.trans_dist::ReadSharedReq         1947                       # Transaction distribution
system.tol2bus.pkt_count_system.cpu.icache.mem_side::system.l2.cpu_side         1788                       # Packet count per connected master and slave (bytes)
system.tol2bus.pkt_count_system.cpu.dcache.mem_side::system.l2.cpu_side         9294                       # Packet count per connected master and slave (bytes)
system.tol2bus.pkt_count::total                 11082                       # Packet count per connected master and slave (bytes)
system.tol2bus.pkt_size_system.cpu.icache.mem_side::system.l2.cpu_side        60608                       # Cumulative packet size per connected master and slave (bytes)
system.tol2bus.pkt_size_system.cpu.dcache.mem_side::system.l2.cpu_side       306496                       # Cumulative packet size per connected master and slave (bytes)
system.tol2bus.pkt_size::total                 367104                       # Cumulative packet size per connected master and slave (bytes)
system.tol2bus.snoops                               0                       # Total snoops (count)
system.tol2bus.snoopTraffic                         0                       # Total snoop traffic (bytes)
system.tol2bus.snoop_fanout::samples             4264                       # Request fanout histogram
system.tol2bus.snoop_fanout::mean            0.001876                       # Request fanout histogram
system.tol2bus.snoop_fanout::stdev           0.043279                       # Request fanout histogram
system.tol2bus.snoop_fanout::underflows             0      0.00%      0.00% # Request fanout histogram
system.tol2bus.snoop_fanout::0                   4256     99.81%     99.81% # Request fanout histogram
system.tol2bus.snoop_fanout::1                      8      0.19%    100.00% # Request fanout histogram
system.tol2bus.snoop_fanout::2                      0      0.00%    100.00% # Request fanout histogram
system.tol2bus.snoop_fanout::3                      0      0.00%    100.00% # Request fanout histogram
system.tol2bus.snoop_fanout::4                      0      0.00%    100.00% # Request fanout histogram
system.tol2bus.snoop_fanout::overflows              0      0.00%    100.00% # Request fanout histogram
system.tol2bus.snoop_fanout::min_value              0                       # Request fanout histogram
system.tol2bus.snoop_fanout::max_value              1                       # Request fanout histogram
system.tol2bus.snoop_fanout::total               4264                       # Request fanout histogram
system.tol2bus.reqLayer0.occupancy            6511254                       # Layer occupancy (ticks)
system.tol2bus.reqLayer0.utilization              0.4                       # Layer utilization (%)
system.tol2bus.respLayer0.occupancy           1683507                       # Layer occupancy (ticks)
system.tol2bus.respLayer0.utilization             0.1                       # Layer utilization (%)
system.tol2bus.respLayer1.occupancy           6849423                       # Layer occupancy (ticks)
system.tol2bus.respLayer1.utilization             0.4                       # Layer utilization (%)

---------- End Simulation Statistics   ----------
