
---------- Begin Simulation Statistics ----------
sim_seconds                                  0.004100                       # Number of seconds simulated
sim_ticks                                  4100413000                       # Number of ticks simulated
final_tick                                 4100413000                       # Number of ticks from beginning of simulation (restored from checkpoints and never reset)
sim_freq                                 1000000000000                       # Frequency of simulated ticks
host_inst_rate                                  85019                       # Simulator instruction rate (inst/s)
host_op_rate                                   131754                       # Simulator op (including micro ops) rate (op/s)
host_tick_rate                               62498862                       # Simulator tick rate (ticks/s)
host_mem_usage                                 671472                       # Number of bytes of host memory used
host_seconds                                    65.61                       # Real time elapsed on the host
sim_insts                                     5577901                       # Number of instructions simulated
sim_ops                                       8644099                       # Number of ops (including micro ops) simulated
system.voltage_domain.voltage                       1                       # Voltage in Volts
system.clk_domain.clock                          1000                       # Clock period in ticks
system.mem_ctrls.pwrStateResidencyTicks::UNDEFINED   4100413000                       # Cumulative time (in ticks) in various power states
system.mem_ctrls.bytes_read::.cpu.inst          51456                       # Number of bytes read from this memory
system.mem_ctrls.bytes_read::.cpu.data        2198208                       # Number of bytes read from this memory
system.mem_ctrls.bytes_read::total            2249664                       # Number of bytes read from this memory
system.mem_ctrls.bytes_inst_read::.cpu.inst        51456                       # Number of instructions bytes read from this memory
system.mem_ctrls.bytes_inst_read::total         51456                       # Number of instructions bytes read from this memory
system.mem_ctrls.bytes_written::.writebacks        30208                       # Number of bytes written to this memory
system.mem_ctrls.bytes_written::total           30208                       # Number of bytes written to this memory
system.mem_ctrls.num_reads::.cpu.inst             804                       # Number of read requests responded to by this memory
system.mem_ctrls.num_reads::.cpu.data           34347                       # Number of read requests responded to by this memory
system.mem_ctrls.num_reads::total               35151                       # Number of read requests responded to by this memory
system.mem_ctrls.num_writes::.writebacks          472                       # Number of write requests responded to by this memory
system.mem_ctrls.num_writes::total                472                       # Number of write requests responded to by this memory
system.mem_ctrls.bw_read::.cpu.inst          12548980                       # Total read bandwidth from this memory (bytes/s)
system.mem_ctrls.bw_read::.cpu.data         536094291                       # Total read bandwidth from this memory (bytes/s)
system.mem_ctrls.bw_read::total             548643271                       # Total read bandwidth from this memory (bytes/s)
system.mem_ctrls.bw_inst_read::.cpu.inst     12548980                       # Instruction read bandwidth from this memory (bytes/s)
system.mem_ctrls.bw_inst_read::total         12548980                       # Instruction read bandwidth from this memory (bytes/s)
system.mem_ctrls.bw_write::.writebacks        7367063                       # Write bandwidth from this memory (bytes/s)
system.mem_ctrls.bw_write::total              7367063                       # Write bandwidth from this memory (bytes/s)
system.mem_ctrls.bw_total::.writebacks        7367063                       # Total bandwidth to/from this memory (bytes/s)
system.mem_ctrls.bw_total::.cpu.inst         12548980                       # Total bandwidth to/from this memory (bytes/s)
system.mem_ctrls.bw_total::.cpu.data        536094291                       # Total bandwidth to/from this memory (bytes/s)
system.mem_ctrls.bw_total::total            556010334                       # Total bandwidth to/from this memory (bytes/s)
system.mem_ctrls.avgPriority_.writebacks::samples       472.00                       # Average QoS priority value for accepted requests
system.mem_ctrls.avgPriority_.cpu.inst::samples       804.00                       # Average QoS priority value for accepted requests
system.mem_ctrls.avgPriority_.cpu.data::samples     34341.00                       # Average QoS priority value for accepted requests
system.mem_ctrls.priorityMinLatency      0.000000018750                       # per QoS priority minimum request to response latency (s)
system.mem_ctrls.priorityMaxLatency      0.000432776750                       # per QoS priority maximum request to response latency (s)
system.mem_ctrls.numReadWriteTurnArounds           27                       # Number of turnarounds from READ to WRITE
system.mem_ctrls.numWriteReadTurnArounds           27                       # Number of turnarounds from WRITE to READ
system.mem_ctrls.numStayReadState               65645                       # Number of times bus staying in READ state
system.mem_ctrls.numStayWriteState                420                       # Number of times bus staying in WRITE state
system.mem_ctrls.readReqs                       35151                       # Number of read requests accepted
system.mem_ctrls.writeReqs                        472                       # Number of write requests accepted
system.mem_ctrls.readBursts                     35151                       # Number of DRAM read bursts, including those serviced by the write queue
system.mem_ctrls.writeBursts                      472                       # Number of DRAM write bursts, including those merged in the write queue
system.mem_ctrls.bytesReadDRAM                2249280                       # Total number of bytes read from DRAM
system.mem_ctrls.bytesReadWrQ                     384                       # Total number of bytes read from write queue
system.mem_ctrls.bytesWritten                   28608                       # Total number of bytes written to DRAM
system.mem_ctrls.bytesReadSys                 2249664                       # Total read bytes from the system interface side
system.mem_ctrls.bytesWrittenSys                30208                       # Total written bytes from the system interface side
system.mem_ctrls.servicedByWrQ                      6                       # Number of DRAM read bursts serviced by the write queue
system.mem_ctrls.mergedWrBursts                     0                       # Number of DRAM write bursts merged with an existing one
system.mem_ctrls.neitherReadNorWriteReqs            0                       # Number of requests that are neither read nor write
system.mem_ctrls.perBankRdBursts::0              2125                       # Per bank write bursts
system.mem_ctrls.perBankRdBursts::1              2139                       # Per bank write bursts
system.mem_ctrls.perBankRdBursts::2              2261                       # Per bank write bursts
system.mem_ctrls.perBankRdBursts::3              2218                       # Per bank write bursts
system.mem_ctrls.perBankRdBursts::4              2216                       # Per bank write bursts
system.mem_ctrls.perBankRdBursts::5              2237                       # Per bank write bursts
system.mem_ctrls.perBankRdBursts::6              2267                       # Per bank write bursts
system.mem_ctrls.perBankRdBursts::7              2168                       # Per bank write bursts
system.mem_ctrls.perBankRdBursts::8              2223                       # Per bank write bursts
system.mem_ctrls.perBankRdBursts::9              2245                       # Per bank write bursts
system.mem_ctrls.perBankRdBursts::10             2254                       # Per bank write bursts
system.mem_ctrls.perBankRdBursts::11             2205                       # Per bank write bursts
system.mem_ctrls.perBankRdBursts::12             2193                       # Per bank write bursts
system.mem_ctrls.perBankRdBursts::13             2156                       # Per bank write bursts
system.mem_ctrls.perBankRdBursts::14             2122                       # Per bank write bursts
system.mem_ctrls.perBankRdBursts::15             2116                       # Per bank write bursts
system.mem_ctrls.perBankWrBursts::0                 2                       # Per bank write bursts
system.mem_ctrls.perBankWrBursts::1                33                       # Per bank write bursts
system.mem_ctrls.perBankWrBursts::2               111                       # Per bank write bursts
system.mem_ctrls.perBankWrBursts::3                83                       # Per bank write bursts
system.mem_ctrls.perBankWrBursts::4                54                       # Per bank write bursts
system.mem_ctrls.perBankWrBursts::5                59                       # Per bank write bursts
system.mem_ctrls.perBankWrBursts::6                77                       # Per bank write bursts
system.mem_ctrls.perBankWrBursts::7                 1                       # Per bank write bursts
system.mem_ctrls.perBankWrBursts::8                 0                       # Per bank write bursts
system.mem_ctrls.perBankWrBursts::9                 0                       # Per bank write bursts
system.mem_ctrls.perBankWrBursts::10                0                       # Per bank write bursts
system.mem_ctrls.perBankWrBursts::11                0                       # Per bank write bursts
system.mem_ctrls.perBankWrBursts::12               27                       # Per bank write bursts
system.mem_ctrls.perBankWrBursts::13                0                       # Per bank write bursts
system.mem_ctrls.perBankWrBursts::14                0                       # Per bank write bursts
system.mem_ctrls.perBankWrBursts::15                0                       # Per bank write bursts
system.mem_ctrls.numRdRetry                         0                       # Number of times read queue was full causing retry
system.mem_ctrls.numWrRetry                         0                       # Number of times write queue was full causing retry
system.mem_ctrls.totGap                    4100298000                       # Total gap between requests
system.mem_ctrls.readPktSize::0                     0                       # Read request sizes (log2)
system.mem_ctrls.readPktSize::1                     0                       # Read request sizes (log2)
system.mem_ctrls.readPktSize::2                     0                       # Read request sizes (log2)
system.mem_ctrls.readPktSize::3                     0                       # Read request sizes (log2)
system.mem_ctrls.readPktSize::4                     0                       # Read request sizes (log2)
system.mem_ctrls.readPktSize::5                     0                       # Read request sizes (log2)
system.mem_ctrls.readPktSize::6                 35151                       # Read request sizes (log2)
system.mem_ctrls.writePktSize::0                    0                       # Write request sizes (log2)
system.mem_ctrls.writePktSize::1                    0                       # Write request sizes (log2)
system.mem_ctrls.writePktSize::2                    0                       # Write request sizes (log2)
system.mem_ctrls.writePktSize::3                    0                       # Write request sizes (log2)
system.mem_ctrls.writePktSize::4                    0                       # Write request sizes (log2)
system.mem_ctrls.writePktSize::5                    0                       # Write request sizes (log2)
system.mem_ctrls.writePktSize::6                  472                       # Write request sizes (log2)
system.mem_ctrls.rdQLenPdf::0                   10897                       # What read queue length does an incoming req see
system.mem_ctrls.rdQLenPdf::1                   14407                       # What read queue length does an incoming req see
system.mem_ctrls.rdQLenPdf::2                    8091                       # What read queue length does an incoming req see
system.mem_ctrls.rdQLenPdf::3                    1743                       # What read queue length does an incoming req see
system.mem_ctrls.rdQLenPdf::4                       6                       # What read queue length does an incoming req see
system.mem_ctrls.rdQLenPdf::5                       1                       # What read queue length does an incoming req see
system.mem_ctrls.rdQLenPdf::6                       0                       # What read queue length does an incoming req see
system.mem_ctrls.rdQLenPdf::7                       0                       # What read queue length does an incoming req see
system.mem_ctrls.rdQLenPdf::8                       0                       # What read queue length does an incoming req see
system.mem_ctrls.rdQLenPdf::9                       0                       # What read queue length does an incoming req see
system.mem_ctrls.rdQLenPdf::10                      0                       # What read queue length does an incoming req see
system.mem_ctrls.rdQLenPdf::11                      0                       # What read queue length does an incoming req see
system.mem_ctrls.rdQLenPdf::12                      0                       # What read queue length does an incoming req see
system.mem_ctrls.rdQLenPdf::13                      0                       # What read queue length does an incoming req see
system.mem_ctrls.rdQLenPdf::14                      0                       # What read queue length does an incoming req see
system.mem_ctrls.rdQLenPdf::15                      0                       # What read queue length does an incoming req see
system.mem_ctrls.rdQLenPdf::16                      0                       # What read queue length does an incoming req see
system.mem_ctrls.rdQLenPdf::17                      0                       # What read queue length does an incoming req see
system.mem_ctrls.rdQLenPdf::18                      0                       # What read queue length does an incoming req see
system.mem_ctrls.rdQLenPdf::19                      0                       # What read queue length does an incoming req see
system.mem_ctrls.rdQLenPdf::20                      0                       # What read queue length does an incoming req see
system.mem_ctrls.rdQLenPdf::21                      0                       # What read queue length does an incoming req see
system.mem_ctrls.rdQLenPdf::22                      0                       # What read queue length does an incoming req see
system.mem_ctrls.rdQLenPdf::23                      0                       # What read queue length does an incoming req see
system.mem_ctrls.rdQLenPdf::24                      0                       # What read queue length does an incoming req see
system.mem_ctrls.rdQLenPdf::25                      0                       # What read queue length does an incoming req see
system.mem_ctrls.rdQLenPdf::26                      0                       # What read queue length does an incoming req see
system.mem_ctrls.rdQLenPdf::27                      0                       # What read queue length does an incoming req see
system.mem_ctrls.rdQLenPdf::28                      0                       # What read queue length does an incoming req see
system.mem_ctrls.rdQLenPdf::29                      0                       # What read queue length does an incoming req see
system.mem_ctrls.rdQLenPdf::30                      0                       # What read queue length does an incoming req see
system.mem_ctrls.rdQLenPdf::31                      0                       # What read queue length does an incoming req see
system.mem_ctrls.wrQLenPdf::0                       1                       # What write queue length does an incoming req see
system.mem_ctrls.wrQLenPdf::1                       1                       # What write queue length does an incoming req see
system.mem_ctrls.wrQLenPdf::2                       1                       # What write queue length does an incoming req see
system.mem_ctrls.wrQLenPdf::3                       1                       # What write queue length does an incoming req see
system.mem_ctrls.wrQLenPdf::4                       1                       # What write queue length does an incoming req see
system.mem_ctrls.wrQLenPdf::5                       1                       # What write queue length does an incoming req see
system.mem_ctrls.wrQLenPdf::6                       1                       # What write queue length does an incoming req see
system.mem_ctrls.wrQLenPdf::7                       1                       # What write queue length does an incoming req see
system.mem_ctrls.wrQLenPdf::8                       1                       # What write queue length does an incoming req see
system.mem_ctrls.wrQLenPdf::9                       1                       # What write queue length does an incoming req see
system.mem_ctrls.wrQLenPdf::10                      1                       # What write queue length does an incoming req see
system.mem_ctrls.wrQLenPdf::11                      1                       # What write queue length does an incoming req see
system.mem_ctrls.wrQLenPdf::12                      1                       # What write queue length does an incoming req see
system.mem_ctrls.wrQLenPdf::13                      1                       # What write queue length does an incoming req see
system.mem_ctrls.wrQLenPdf::14                      1                       # What write queue length does an incoming req see
system.mem_ctrls.wrQLenPdf::15                      8                       # What write queue length does an incoming req see
system.mem_ctrls.wrQLenPdf::16                      8                       # What write queue length does an incoming req see
system.mem_ctrls.wrQLenPdf::17                     26                       # What write queue length does an incoming req see
system.mem_ctrls.wrQLenPdf::18                     28                       # What write queue length does an incoming req see
system.mem_ctrls.wrQLenPdf::19                     28                       # What write queue length does an incoming req see
system.mem_ctrls.wrQLenPdf::20                     28                       # What write queue length does an incoming req see
system.mem_ctrls.wrQLenPdf::21                     28                       # What write queue length does an incoming req see
system.mem_ctrls.wrQLenPdf::22                     28                       # What write queue length does an incoming req see
system.mem_ctrls.wrQLenPdf::23                     28                       # What write queue length does an incoming req see
system.mem_ctrls.wrQLenPdf::24                     28                       # What write queue length does an incoming req see
system.mem_ctrls.wrQLenPdf::25                     27                       # What write queue length does an incoming req see
system.mem_ctrls.wrQLenPdf::26                     28                       # What write queue length does an incoming req see
system.mem_ctrls.wrQLenPdf::27                     27                       # What write queue length does an incoming req see
system.mem_ctrls.wrQLenPdf::28                     27                       # What write queue length does an incoming req see
system.mem_ctrls.wrQLenPdf::29                     27                       # What write queue length does an incoming req see
system.mem_ctrls.wrQLenPdf::30                     27                       # What write queue length does an incoming req see
system.mem_ctrls.wrQLenPdf::31                     29                       # What write queue length does an incoming req see
system.mem_ctrls.wrQLenPdf::32                     27                       # What write queue length does an incoming req see
system.mem_ctrls.wrQLenPdf::33                      0                       # What write queue length does an incoming req see
system.mem_ctrls.wrQLenPdf::34                      0                       # What write queue length does an incoming req see
system.mem_ctrls.wrQLenPdf::35                      0                       # What write queue length does an incoming req see
system.mem_ctrls.wrQLenPdf::36                      0                       # What write queue length does an incoming req see
system.mem_ctrls.wrQLenPdf::37                      0                       # What write queue length does an incoming req see
system.mem_ctrls.wrQLenPdf::38                      0                       # What write queue length does an incoming req see
system.mem_ctrls.wrQLenPdf::39                      0                       # What write queue length does an incoming req see
system.mem_ctrls.wrQLenPdf::40                      0                       # What write queue length does an incoming req see
system.mem_ctrls.wrQLenPdf::41                      0                       # What write queue length does an incoming req see
system.mem_ctrls.wrQLenPdf::42                      0                       # What write queue length does an incoming req see
system.mem_ctrls.wrQLenPdf::43                      0                       # What write queue length does an incoming req see
system.mem_ctrls.wrQLenPdf::44                      0                       # What write queue length does an incoming req see
system.mem_ctrls.wrQLenPdf::45                      0                       # What write queue length does an incoming req see
system.mem_ctrls.wrQLenPdf::46                      0                       # What write queue length does an incoming req see
system.mem_ctrls.wrQLenPdf::47                      0                       # What write queue length does an incoming req see
system.mem_ctrls.wrQLenPdf::48                      0                       # What write queue length does an incoming req see
system.mem_ctrls.wrQLenPdf::49                      0                       # What write queue length does an incoming req see
system.mem_ctrls.wrQLenPdf::50                      0                       # What write queue length does an incoming req see
system.mem_ctrls.wrQLenPdf::51                      0                       # What write queue length does an incoming req see
system.mem_ctrls.wrQLenPdf::52                      0                       # What write queue length does an incoming req see
system.mem_ctrls.wrQLenPdf::53                      0                       # What write queue length does an incoming req see
system.mem_ctrls.wrQLenPdf::54                      0                       # What write queue length does an incoming req see
system.mem_ctrls.wrQLenPdf::55                      0                       # What write queue length does an incoming req see
system.mem_ctrls.wrQLenPdf::56                      0                       # What write queue length does an incoming req see
system.mem_ctrls.wrQLenPdf::57                      0                       # What write queue length does an incoming req see
system.mem_ctrls.wrQLenPdf::58                      0                       # What write queue length does an incoming req see
system.mem_ctrls.wrQLenPdf::59                      0                       # What write queue length does an incoming req see
system.mem_ctrls.wrQLenPdf::60                      0                       # What write queue length does an incoming req see
system.mem_ctrls.wrQLenPdf::61                      0                       # What write queue length does an incoming req see
system.mem_ctrls.wrQLenPdf::62                      0                       # What write queue length does an incoming req see
system.mem_ctrls.wrQLenPdf::63                      0                       # What write queue length does an incoming req see
system.mem_ctrls.bytesPerActivate::samples        31591                       # Bytes accessed per row activation
system.mem_ctrls.bytesPerActivate::mean     72.020512                       # Bytes accessed per row activation
system.mem_ctrls.bytesPerActivate::gmean    67.723461                       # Bytes accessed per row activation
system.mem_ctrls.bytesPerActivate::stdev    55.801408                       # Bytes accessed per row activation
system.mem_ctrls.bytesPerActivate::0-127        29619     93.76%     93.76% # Bytes accessed per row activation
system.mem_ctrls.bytesPerActivate::128-255         1710      5.41%     99.17% # Bytes accessed per row activation
system.mem_ctrls.bytesPerActivate::256-383           82      0.26%     99.43% # Bytes accessed per row activation
system.mem_ctrls.bytesPerActivate::384-511           49      0.16%     99.59% # Bytes accessed per row activation
system.mem_ctrls.bytesPerActivate::512-639           34      0.11%     99.69% # Bytes accessed per row activation
system.mem_ctrls.bytesPerActivate::640-767           22      0.07%     99.76% # Bytes accessed per row activation
system.mem_ctrls.bytesPerActivate::768-895            6      0.02%     99.78% # Bytes accessed per row activation
system.mem_ctrls.bytesPerActivate::896-1023            6      0.02%     99.80% # Bytes accessed per row activation
system.mem_ctrls.bytesPerActivate::1024-1151           63      0.20%    100.00% # Bytes accessed per row activation
system.mem_ctrls.bytesPerActivate::total        31591                       # Bytes accessed per row activation
system.mem_ctrls.rdPerTurnAround::samples           27                       # Reads before turning the bus around for writes
system.mem_ctrls.rdPerTurnAround::mean    1293.851852                       # Reads before turning the bus around for writes
system.mem_ctrls.rdPerTurnAround::gmean    343.202601                       # Reads before turning the bus around for writes
system.mem_ctrls.rdPerTurnAround::stdev   4711.437872                       # Reads before turning the bus around for writes
system.mem_ctrls.rdPerTurnAround::0-1023           24     88.89%     88.89% # Reads before turning the bus around for writes
system.mem_ctrls.rdPerTurnAround::1024-2047            2      7.41%     96.30% # Reads before turning the bus around for writes
system.mem_ctrls.rdPerTurnAround::24576-25599            1      3.70%    100.00% # Reads before turning the bus around for writes
system.mem_ctrls.rdPerTurnAround::total            27                       # Reads before turning the bus around for writes
system.mem_ctrls.wrPerTurnAround::samples           27                       # Writes before turning the bus around for reads
system.mem_ctrls.wrPerTurnAround::mean      16.555556                       # Writes before turning the bus around for reads
system.mem_ctrls.wrPerTurnAround::gmean     16.529184                       # Writes before turning the bus around for reads
system.mem_ctrls.wrPerTurnAround::stdev      0.974022                       # Writes before turning the bus around for reads
system.mem_ctrls.wrPerTurnAround::16               20     74.07%     74.07% # Writes before turning the bus around for reads
system.mem_ctrls.wrPerTurnAround::18                6     22.22%     96.30% # Writes before turning the bus around for reads
system.mem_ctrls.wrPerTurnAround::19                1      3.70%    100.00% # Writes before turning the bus around for reads
system.mem_ctrls.wrPerTurnAround::total            27                       # Writes before turning the bus around for reads
system.mem_ctrls.masterReadBytes::.cpu.inst        51456                       # Per-master bytes read from memory
system.mem_ctrls.masterReadBytes::.cpu.data      2197824                       # Per-master bytes read from memory
system.mem_ctrls.masterWriteBytes::.writebacks        28608                       # Per-master bytes write to memory
system.mem_ctrls.masterReadRate::.cpu.inst 12548979.822276439518                       # Per-master bytes read from memory rate (Bytes/sec)
system.mem_ctrls.masterReadRate::.cpu.data 536000641.886561214924                       # Per-master bytes read from memory rate (Bytes/sec)
system.mem_ctrls.masterWriteRate::.writebacks 6976858.184773094952                       # Per-master bytes write to memory rate (Bytes/sec)
system.mem_ctrls.masterReadAccesses::.cpu.inst          804                       # Per-master read serviced memory accesses
system.mem_ctrls.masterReadAccesses::.cpu.data        34347                       # Per-master read serviced memory accesses
system.mem_ctrls.masterWriteAccesses::.writebacks          472                       # Per-master write serviced memory accesses
system.mem_ctrls.masterReadTotalLat::.cpu.inst     27494500                       # Per-master read total memory access latency
system.mem_ctrls.masterReadTotalLat::.cpu.data   1860646500                       # Per-master read total memory access latency
system.mem_ctrls.masterWriteTotalLat::.writebacks  14823199250                       # Per-master write total memory access latency
system.mem_ctrls.masterReadAvgLat::.cpu.inst     34197.14                       # Per-master read average memory access latency
system.mem_ctrls.masterReadAvgLat::.cpu.data     54172.02                       # Per-master read average memory access latency
system.mem_ctrls.masterWriteAvgLat::.writebacks  31405083.16                       # Per-master write average memory access latency
system.mem_ctrls.totQLat                   1229172250                       # Total ticks spent queuing
system.mem_ctrls.totMemAccLat              1888141000                       # Total ticks spent from burst creation until serviced by the DRAM
system.mem_ctrls.totBusLat                  175725000                       # Total ticks spent in databus transfers
system.mem_ctrls.avgQLat                     34974.31                       # Average queueing delay per DRAM burst
system.mem_ctrls.avgBusLat                    5000.00                       # Average bus latency per DRAM burst
system.mem_ctrls.avgMemAccLat                53724.31                       # Average memory access latency per DRAM burst
system.mem_ctrls.avgRdBW                       548.55                       # Average DRAM read bandwidth in MiByte/s
system.mem_ctrls.avgWrBW                         6.98                       # Average achieved write bandwidth in MiByte/s
system.mem_ctrls.avgRdBWSys                    548.64                       # Average system read bandwidth in MiByte/s
system.mem_ctrls.avgWrBWSys                      7.37                       # Average system write bandwidth in MiByte/s
system.mem_ctrls.peakBW                      12800.00                       # Theoretical peak bandwidth in MiByte/s
system.mem_ctrls.busUtil                         4.34                       # Data bus utilization in percentage
system.mem_ctrls.busUtilRead                     4.29                       # Data bus utilization in percentage for reads
system.mem_ctrls.busUtilWrite                    0.05                       # Data bus utilization in percentage for writes
system.mem_ctrls.avgRdQLen                       1.45                       # Average read queue length when enqueuing
system.mem_ctrls.avgWrQLen                      19.87                       # Average write queue length when enqueuing
system.mem_ctrls.readRowHits                     3637                       # Number of row buffer hits during reads
system.mem_ctrls.writeRowHits                     352                       # Number of row buffer hits during writes
system.mem_ctrls.readRowHitRate                 10.35                       # Row buffer hit rate for reads
system.mem_ctrls.writeRowHitRate                74.58                       # Row buffer hit rate for writes
system.mem_ctrls.avgGap                     115102.55                       # Average gap between requests
system.mem_ctrls.pageHitRate                    11.20                       # Row buffer hit rate, read and write combined
system.mem_ctrls_0.actEnergy                113376060                       # Energy for activate commands per rank (pJ)
system.mem_ctrls_0.preEnergy                 60230445                       # Energy for precharge commands per rank (pJ)
system.mem_ctrls_0.readEnergy               125885340                       # Energy for read commands per rank (pJ)
system.mem_ctrls_0.writeEnergy                2192400                       # Energy for write commands per rank (pJ)
system.mem_ctrls_0.refreshEnergy         118010880.000000                       # Energy for refresh commands per rank (pJ)
system.mem_ctrls_0.actBackEnergy            323895660                       # Energy for active background per rank (pJ)
system.mem_ctrls_0.preBackEnergy              2626080                       # Energy for precharge background per rank (pJ)
system.mem_ctrls_0.actPowerDownEnergy       350295780                       # Energy for active power-down per rank (pJ)
system.mem_ctrls_0.prePowerDownEnergy         6405600                       # Energy for precharge power-down per rank (pJ)
system.mem_ctrls_0.selfRefreshEnergy        624169140                       # Energy for self refresh per rank (pJ)
system.mem_ctrls_0.totalEnergy             1727087385                       # Total energy per rank (pJ)
system.mem_ctrls_0.averagePower            421.198398                       # Core power per rank (mW)
system.mem_ctrls_0.totalIdleTime           3383224750                       # Total Idle time Per DRAM Rank
system.mem_ctrls_0.memoryStateTime::IDLE      1171000                       # Time in different power states
system.mem_ctrls_0.memoryStateTime::REF      49920000                       # Time in different power states
system.mem_ctrls_0.memoryStateTime::SREF   2598403000                       # Time in different power states
system.mem_ctrls_0.memoryStateTime::PRE_PDN     16675500                       # Time in different power states
system.mem_ctrls_0.memoryStateTime::ACT     666032500                       # Time in different power states
system.mem_ctrls_0.memoryStateTime::ACT_PDN    768211000                       # Time in different power states
system.mem_ctrls_1.actEnergy                112269360                       # Energy for activate commands per rank (pJ)
system.mem_ctrls_1.preEnergy                 59657400                       # Energy for precharge commands per rank (pJ)
system.mem_ctrls_1.readEnergy               125049960                       # Energy for read commands per rank (pJ)
system.mem_ctrls_1.writeEnergy                 140940                       # Energy for write commands per rank (pJ)
system.mem_ctrls_1.refreshEnergy         118010880.000000                       # Energy for refresh commands per rank (pJ)
system.mem_ctrls_1.actBackEnergy            320138220                       # Energy for active background per rank (pJ)
system.mem_ctrls_1.preBackEnergy              3972480                       # Energy for precharge background per rank (pJ)
system.mem_ctrls_1.actPowerDownEnergy       347465730                       # Energy for active power-down per rank (pJ)
system.mem_ctrls_1.prePowerDownEnergy        10326240                       # Energy for precharge power-down per rank (pJ)
system.mem_ctrls_1.selfRefreshEnergy        624344340                       # Energy for self refresh per rank (pJ)
system.mem_ctrls_1.totalEnergy             1721375550                       # Total energy per rank (pJ)
system.mem_ctrls_1.averagePower            419.805407                       # Core power per rank (mW)
system.mem_ctrls_1.totalIdleTime           3387736250                       # Total Idle time Per DRAM Rank
system.mem_ctrls_1.memoryStateTime::IDLE      4423250                       # Time in different power states
system.mem_ctrls_1.memoryStateTime::REF      49920000                       # Time in different power states
system.mem_ctrls_1.memoryStateTime::SREF   2599133000                       # Time in different power states
system.mem_ctrls_1.memoryStateTime::PRE_PDN     26884500                       # Time in different power states
system.mem_ctrls_1.memoryStateTime::ACT     658044000                       # Time in different power states
system.mem_ctrls_1.memoryStateTime::ACT_PDN    762008250                       # Time in different power states
system.pwrStateResidencyTicks::UNDEFINED   4100413000                       # Cumulative time (in ticks) in various power states
system.cpu.branchPred.lookups                  530257                       # Number of BP lookups
system.cpu.branchPred.condPredicted            530257                       # Number of conditional branches predicted
system.cpu.branchPred.condIncorrect              2686                       # Number of conditional branches incorrect
system.cpu.branchPred.BTBLookups               527383                       # Number of BTB lookups
system.cpu.branchPred.BTBHits                       0                       # Number of BTB hits
system.cpu.branchPred.BTBCorrect                    0                       # Number of correct BTB predictions (this stat may not work properly.
system.cpu.branchPred.BTBHitPct              0.000000                       # BTB Hit Percentage
system.cpu.branchPred.usedRAS                    1392                       # Number of times the RAS was used to get a target.
system.cpu.branchPred.RASInCorrect                341                       # Number of incorrect RAS predictions.
system.cpu.branchPred.indirectLookups          527383                       # Number of indirect predictor lookups.
system.cpu.branchPred.indirectHits             507963                       # Number of indirect target hits.
system.cpu.branchPred.indirectMisses            19420                       # Number of indirect misses.
system.cpu.branchPredindirectMispredicted         1796                       # Number of mispredicted indirect branches.
system.cpu_voltage_domain.voltage                   1                       # Voltage in Volts
system.cpu_clk_domain.clock                      1000                       # Clock period in ticks
system.cpu.dtb.walker.pwrStateResidencyTicks::UNDEFINED   4100413000                       # Cumulative time (in ticks) in various power states
system.cpu.dtb.rdAccesses                      847033                       # TLB accesses on read requests
system.cpu.dtb.wrAccesses                       13493                       # TLB accesses on write requests
system.cpu.dtb.rdMisses                        439151                       # TLB misses on read requests
system.cpu.dtb.wrMisses                            77                       # TLB misses on write requests
system.cpu.apic_clk_domain.clock                16000                       # Clock period in ticks
system.cpu.interrupts.pwrStateResidencyTicks::UNDEFINED   4100413000                       # Cumulative time (in ticks) in various power states
system.cpu.itb.walker.pwrStateResidencyTicks::UNDEFINED   4100413000                       # Cumulative time (in ticks) in various power states
system.cpu.itb.rdAccesses                           0                       # TLB accesses on read requests
system.cpu.itb.wrAccesses                       17210                       # TLB accesses on write requests
system.cpu.itb.rdMisses                             0                       # TLB misses on read requests
system.cpu.itb.wrMisses                           117                       # TLB misses on write requests
system.cpu.workload.numSyscalls                    27                       # Number of system calls
system.cpu.pwrStateResidencyTicks::ON      4100413000                       # Cumulative time (in ticks) in various power states
system.cpu.numCycles                          4100414                       # number of cpu cycles simulated
system.cpu.numWorkItemsStarted                      0                       # number of work items this cpu started
system.cpu.numWorkItemsCompleted                    0                       # number of work items this cpu completed
system.cpu.fetch.icacheStallCycles              37861                       # Number of cycles fetch is stalled on an Icache miss
system.cpu.fetch.Insts                        5656186                       # Number of instructions fetch has processed
system.cpu.fetch.Branches                      530257                       # Number of branches that fetch encountered
system.cpu.fetch.predictedBranches             509355                       # Number of branches that fetch has predicted taken
system.cpu.fetch.Cycles                       4024273                       # Number of cycles fetch has run and was not squashing or blocked
system.cpu.fetch.SquashCycles                    5466                       # Number of cycles fetch has spent squashing
system.cpu.fetch.TlbCycles                        106                       # Number of cycles fetch has spent waiting for tlb
system.cpu.fetch.MiscStallCycles                   19                       # Number of cycles fetch has spent waiting on interrupts, or bad addresses, or out of MSHRs
system.cpu.fetch.PendingTrapStallCycles           302                       # Number of stall cycles due to pending traps
system.cpu.fetch.PendingQuiesceStallCycles           14                       # Number of stall cycles due to pending quiesce instructions
system.cpu.fetch.IcacheWaitRetryStallCycles           15                       # Number of stall cycles due to full MSHR
system.cpu.fetch.CacheLines                     17167                       # Number of cache lines fetched
system.cpu.fetch.IcacheSquashes                  1057                       # Number of outstanding Icache misses that were squashed
system.cpu.fetch.rateDist::samples            4065323                       # Number of instructions fetched each cycle (Total)
system.cpu.fetch.rateDist::mean              2.162214                       # Number of instructions fetched each cycle (Total)
system.cpu.fetch.rateDist::stdev             3.183992                       # Number of instructions fetched each cycle (Total)
system.cpu.fetch.rateDist::underflows               0      0.00%      0.00% # Number of instructions fetched each cycle (Total)
system.cpu.fetch.rateDist::0                  2520686     62.00%     62.00% # Number of instructions fetched each cycle (Total)
system.cpu.fetch.rateDist::1                   159631      3.93%     65.93% # Number of instructions fetched each cycle (Total)
system.cpu.fetch.rateDist::2                   117063      2.88%     68.81% # Number of instructions fetched each cycle (Total)
system.cpu.fetch.rateDist::3                   116090      2.86%     71.67% # Number of instructions fetched each cycle (Total)
system.cpu.fetch.rateDist::4                   116894      2.88%     74.54% # Number of instructions fetched each cycle (Total)
system.cpu.fetch.rateDist::5                   115524      2.84%     77.38% # Number of instructions fetched each cycle (Total)
system.cpu.fetch.rateDist::6                   116822      2.87%     80.26% # Number of instructions fetched each cycle (Total)
system.cpu.fetch.rateDist::7                   118960      2.93%     83.18% # Number of instructions fetched each cycle (Total)
system.cpu.fetch.rateDist::8                   683653     16.82%    100.00% # Number of instructions fetched each cycle (Total)
system.cpu.fetch.rateDist::overflows                0      0.00%    100.00% # Number of instructions fetched each cycle (Total)
system.cpu.fetch.rateDist::min_value                0                       # Number of instructions fetched each cycle (Total)
system.cpu.fetch.rateDist::max_value                8                       # Number of instructions fetched each cycle (Total)
system.cpu.fetch.rateDist::total              4065323                       # Number of instructions fetched each cycle (Total)
system.cpu.fetch.branchRate                  0.129318                       # Number of branch fetches per cycle
system.cpu.fetch.rate                        1.379418                       # Number of inst fetches per cycle
system.cpu.decode.IdleCycles                   483001                       # Number of cycles decode is idle
system.cpu.decode.BlockedCycles               2478970                       # Number of cycles decode is blocked
system.cpu.decode.RunCycles                    117740                       # Number of cycles decode is running
system.cpu.decode.UnblockCycles                982879                       # Number of cycles decode is unblocking
system.cpu.decode.SquashCycles                   2733                       # Number of cycles decode is squashing
system.cpu.decode.DecodedInsts                8767207                       # Number of instructions handled by decode
system.cpu.rename.SquashCycles                   2733                       # Number of cycles rename is squashing
system.cpu.rename.IdleCycles                   581798                       # Number of cycles rename is idle
system.cpu.rename.BlockCycles                 1084328                       # Number of cycles rename is blocking
system.cpu.rename.serializeStallCycles           2041                       # count of cycles rename stalled for serializing inst
system.cpu.rename.RunCycles                    984230                       # Number of cycles rename is running
system.cpu.rename.UnblockCycles               1410193                       # Number of cycles rename is unblocking
system.cpu.rename.RenamedInsts                8756358                       # Number of instructions processed by rename
system.cpu.rename.ROBFullEvents                 89434                       # Number of times rename has blocked due to ROB full
system.cpu.rename.IQFullEvents                1207277                       # Number of times rename has blocked due to IQ full
system.cpu.rename.LQFullEvents                    533                       # Number of times rename has blocked due to LQ full
system.cpu.rename.SQFullEvents                  16644                       # Number of times rename has blocked due to SQ full
system.cpu.rename.RenamedOperands            16307307                       # Number of destination operands rename has renamed
system.cpu.rename.RenameLookups              20153721                       # Number of register rename lookups that rename has made
system.cpu.rename.int_rename_lookups         13388998                       # Number of integer rename lookups
system.cpu.rename.fp_rename_lookups             11374                       # Number of floating rename lookups
system.cpu.rename.CommittedMaps              16177471                       # Number of HB maps that are committed
system.cpu.rename.UndoneMaps                   129836                       # Number of HB maps that are undone due to squashing
system.cpu.rename.serializingInsts                 89                       # count of serializing insts renamed
system.cpu.rename.tempSerializingInsts             61                       # count of temporary serializing insts renamed
system.cpu.rename.skidInsts                   3091453                       # count of insts added to the skid buffer
system.cpu.memDep0.insertedLoads               534059                       # Number of loads inserted to the mem dependence unit.
system.cpu.memDep0.insertedStores               16213                       # Number of stores inserted to the mem dependence unit.
system.cpu.memDep0.conflictingLoads              1097                       # Number of conflicting loads.
system.cpu.memDep0.conflictingStores              232                       # Number of conflicting stores.
system.cpu.iq.iqInstsAdded                    8736607                       # Number of instructions added to the IQ (excludes non-spec)
system.cpu.iq.iqNonSpecInstsAdded                  80                       # Number of non-speculative instructions added to the IQ
system.cpu.iq.iqInstsIssued                   9022749                       # Number of instructions issued
system.cpu.iq.iqSquashedInstsIssued               664                       # Number of squashed instructions issued
system.cpu.iq.iqSquashedInstsExamined           92587                       # Number of squashed instructions iterated over during squash; mainly for profiling
system.cpu.iq.iqSquashedOperandsExamined       133312                       # Number of squashed operands that are examined and possibly removed from graph
system.cpu.iq.iqSquashedNonSpecRemoved             53                       # Number of squashed non-spec instructions that were removed
system.cpu.iq.issued_per_cycle::samples       4065323                       # Number of insts issued each cycle
system.cpu.iq.issued_per_cycle::mean         2.219442                       # Number of insts issued each cycle
system.cpu.iq.issued_per_cycle::stdev        1.455997                       # Number of insts issued each cycle
system.cpu.iq.issued_per_cycle::underflows            0      0.00%      0.00% # Number of insts issued each cycle
system.cpu.iq.issued_per_cycle::0              824036     20.27%     20.27% # Number of insts issued each cycle
system.cpu.iq.issued_per_cycle::1              346786      8.53%     28.80% # Number of insts issued each cycle
system.cpu.iq.issued_per_cycle::2              902966     22.21%     51.01% # Number of insts issued each cycle
system.cpu.iq.issued_per_cycle::3             1254863     30.87%     81.88% # Number of insts issued each cycle
system.cpu.iq.issued_per_cycle::4              639309     15.73%     97.61% # Number of insts issued each cycle
system.cpu.iq.issued_per_cycle::5               56808      1.40%     99.00% # Number of insts issued each cycle
system.cpu.iq.issued_per_cycle::6               25342      0.62%     99.63% # Number of insts issued each cycle
system.cpu.iq.issued_per_cycle::7                9590      0.24%     99.86% # Number of insts issued each cycle
system.cpu.iq.issued_per_cycle::8                5623      0.14%    100.00% # Number of insts issued each cycle
system.cpu.iq.issued_per_cycle::overflows            0      0.00%    100.00% # Number of insts issued each cycle
system.cpu.iq.issued_per_cycle::min_value            0                       # Number of insts issued each cycle
system.cpu.iq.issued_per_cycle::max_value            8                       # Number of insts issued each cycle
system.cpu.iq.issued_per_cycle::total         4065323                       # Number of insts issued each cycle
system.cpu.iq.fu_full::No_OpClass                   0      0.00%      0.00% # attempts to use FU when none available
system.cpu.iq.fu_full::IntAlu                    3535      8.05%      8.05% # attempts to use FU when none available
system.cpu.iq.fu_full::IntMult                      0      0.00%      8.05% # attempts to use FU when none available
system.cpu.iq.fu_full::IntDiv                       0      0.00%      8.05% # attempts to use FU when none available
system.cpu.iq.fu_full::FloatAdd                     0      0.00%      8.05% # attempts to use FU when none available
system.cpu.iq.fu_full::FloatCmp                     0      0.00%      8.05% # attempts to use FU when none available
system.cpu.iq.fu_full::FloatCvt                     0      0.00%      8.05% # attempts to use FU when none available
system.cpu.iq.fu_full::FloatMult                    0      0.00%      8.05% # attempts to use FU when none available
system.cpu.iq.fu_full::FloatMultAcc                 0      0.00%      8.05% # attempts to use FU when none available
system.cpu.iq.fu_full::FloatDiv                     0      0.00%      8.05% # attempts to use FU when none available
system.cpu.iq.fu_full::FloatMisc                    0      0.00%      8.05% # attempts to use FU when none available
system.cpu.iq.fu_full::FloatSqrt                    0      0.00%      8.05% # attempts to use FU when none available
system.cpu.iq.fu_full::SimdAdd                      0      0.00%      8.05% # attempts to use FU when none available
system.cpu.iq.fu_full::SimdAddAcc                   0      0.00%      8.05% # attempts to use FU when none available
system.cpu.iq.fu_full::SimdAlu                     12      0.03%      8.08% # attempts to use FU when none available
system.cpu.iq.fu_full::SimdCmp                      0      0.00%      8.08% # attempts to use FU when none available
system.cpu.iq.fu_full::SimdCvt                      4      0.01%      8.09% # attempts to use FU when none available
system.cpu.iq.fu_full::SimdMisc                     2      0.00%      8.09% # attempts to use FU when none available
system.cpu.iq.fu_full::SimdMult                     0      0.00%      8.09% # attempts to use FU when none available
system.cpu.iq.fu_full::SimdMultAcc                  0      0.00%      8.09% # attempts to use FU when none available
system.cpu.iq.fu_full::SimdShift                    1      0.00%      8.09% # attempts to use FU when none available
system.cpu.iq.fu_full::SimdShiftAcc                 0      0.00%      8.09% # attempts to use FU when none available
system.cpu.iq.fu_full::SimdSqrt                     0      0.00%      8.09% # attempts to use FU when none available
system.cpu.iq.fu_full::SimdFloatAdd                 0      0.00%      8.09% # attempts to use FU when none available
system.cpu.iq.fu_full::SimdFloatAlu                 0      0.00%      8.09% # attempts to use FU when none available
system.cpu.iq.fu_full::SimdFloatCmp                 0      0.00%      8.09% # attempts to use FU when none available
system.cpu.iq.fu_full::SimdFloatCvt                 0      0.00%      8.09% # attempts to use FU when none available
system.cpu.iq.fu_full::SimdFloatDiv                 0      0.00%      8.09% # attempts to use FU when none available
system.cpu.iq.fu_full::SimdFloatMisc                0      0.00%      8.09% # attempts to use FU when none available
system.cpu.iq.fu_full::SimdFloatMult                0      0.00%      8.09% # attempts to use FU when none available
system.cpu.iq.fu_full::SimdFloatMultAcc             0      0.00%      8.09% # attempts to use FU when none available
system.cpu.iq.fu_full::SimdFloatSqrt                0      0.00%      8.09% # attempts to use FU when none available
system.cpu.iq.fu_full::SimdAes                      0      0.00%      8.09% # attempts to use FU when none available
system.cpu.iq.fu_full::SimdAesMix                   0      0.00%      8.09% # attempts to use FU when none available
system.cpu.iq.fu_full::SimdSha1Hash                 0      0.00%      8.09% # attempts to use FU when none available
system.cpu.iq.fu_full::SimdSha1Hash2                0      0.00%      8.09% # attempts to use FU when none available
system.cpu.iq.fu_full::SimdSha256Hash               0      0.00%      8.09% # attempts to use FU when none available
system.cpu.iq.fu_full::SimdSha256Hash2              0      0.00%      8.09% # attempts to use FU when none available
system.cpu.iq.fu_full::SimdShaSigma2                0      0.00%      8.09% # attempts to use FU when none available
system.cpu.iq.fu_full::SimdShaSigma3                0      0.00%      8.09% # attempts to use FU when none available
system.cpu.iq.fu_full::MemRead                  39923     90.91%     99.00% # attempts to use FU when none available
system.cpu.iq.fu_full::MemWrite                   400      0.91%     99.91% # attempts to use FU when none available
system.cpu.iq.fu_full::FloatMemRead                10      0.02%     99.94% # attempts to use FU when none available
system.cpu.iq.fu_full::FloatMemWrite               28      0.06%    100.00% # attempts to use FU when none available
system.cpu.iq.fu_full::IprAccess                    0      0.00%    100.00% # attempts to use FU when none available
system.cpu.iq.fu_full::InstPrefetch                 0      0.00%    100.00% # attempts to use FU when none available
system.cpu.iq.FU_type_0::No_OpClass              2188      0.02%      0.02% # Type of FU issued
system.cpu.iq.FU_type_0::IntAlu               8154079     90.37%     90.40% # Type of FU issued
system.cpu.iq.FU_type_0::IntMult                   24      0.00%     90.40% # Type of FU issued
system.cpu.iq.FU_type_0::IntDiv                  1144      0.01%     90.41% # Type of FU issued
system.cpu.iq.FU_type_0::FloatAdd                 146      0.00%     90.41% # Type of FU issued
system.cpu.iq.FU_type_0::FloatCmp                   0      0.00%     90.41% # Type of FU issued
system.cpu.iq.FU_type_0::FloatCvt                   0      0.00%     90.41% # Type of FU issued
system.cpu.iq.FU_type_0::FloatMult                  0      0.00%     90.41% # Type of FU issued
system.cpu.iq.FU_type_0::FloatMultAcc               0      0.00%     90.41% # Type of FU issued
system.cpu.iq.FU_type_0::FloatDiv                   0      0.00%     90.41% # Type of FU issued
system.cpu.iq.FU_type_0::FloatMisc                  0      0.00%     90.41% # Type of FU issued
system.cpu.iq.FU_type_0::FloatSqrt                  0      0.00%     90.41% # Type of FU issued
system.cpu.iq.FU_type_0::SimdAdd                  374      0.00%     90.42% # Type of FU issued
system.cpu.iq.FU_type_0::SimdAddAcc                 0      0.00%     90.42% # Type of FU issued
system.cpu.iq.FU_type_0::SimdAlu                  782      0.01%     90.42% # Type of FU issued
system.cpu.iq.FU_type_0::SimdCmp                    6      0.00%     90.42% # Type of FU issued
system.cpu.iq.FU_type_0::SimdCvt                  926      0.01%     90.43% # Type of FU issued
system.cpu.iq.FU_type_0::SimdMisc                 590      0.01%     90.44% # Type of FU issued
system.cpu.iq.FU_type_0::SimdMult                   0      0.00%     90.44% # Type of FU issued
system.cpu.iq.FU_type_0::SimdMultAcc                0      0.00%     90.44% # Type of FU issued
system.cpu.iq.FU_type_0::SimdShift                195      0.00%     90.44% # Type of FU issued
system.cpu.iq.FU_type_0::SimdShiftAcc               0      0.00%     90.44% # Type of FU issued
system.cpu.iq.FU_type_0::SimdSqrt                   0      0.00%     90.44% # Type of FU issued
system.cpu.iq.FU_type_0::SimdFloatAdd               0      0.00%     90.44% # Type of FU issued
system.cpu.iq.FU_type_0::SimdFloatAlu               0      0.00%     90.44% # Type of FU issued
system.cpu.iq.FU_type_0::SimdFloatCmp               0      0.00%     90.44% # Type of FU issued
system.cpu.iq.FU_type_0::SimdFloatCvt               0      0.00%     90.44% # Type of FU issued
system.cpu.iq.FU_type_0::SimdFloatDiv               0      0.00%     90.44% # Type of FU issued
system.cpu.iq.FU_type_0::SimdFloatMisc              0      0.00%     90.44% # Type of FU issued
system.cpu.iq.FU_type_0::SimdFloatMult              0      0.00%     90.44% # Type of FU issued
system.cpu.iq.FU_type_0::SimdFloatMultAcc            0      0.00%     90.44% # Type of FU issued
system.cpu.iq.FU_type_0::SimdFloatSqrt              0      0.00%     90.44% # Type of FU issued
system.cpu.iq.FU_type_0::SimdAes                    0      0.00%     90.44% # Type of FU issued
system.cpu.iq.FU_type_0::SimdAesMix                 0      0.00%     90.44% # Type of FU issued
system.cpu.iq.FU_type_0::SimdSha1Hash               0      0.00%     90.44% # Type of FU issued
system.cpu.iq.FU_type_0::SimdSha1Hash2              0      0.00%     90.44% # Type of FU issued
system.cpu.iq.FU_type_0::SimdSha256Hash             0      0.00%     90.44% # Type of FU issued
system.cpu.iq.FU_type_0::SimdSha256Hash2            0      0.00%     90.44% # Type of FU issued
system.cpu.iq.FU_type_0::SimdShaSigma2              0      0.00%     90.44% # Type of FU issued
system.cpu.iq.FU_type_0::SimdShaSigma3              0      0.00%     90.44% # Type of FU issued
system.cpu.iq.FU_type_0::MemRead               846941      9.39%     99.83% # Type of FU issued
system.cpu.iq.FU_type_0::MemWrite               13572      0.15%     99.98% # Type of FU issued
system.cpu.iq.FU_type_0::FloatMemRead            1367      0.02%    100.00% # Type of FU issued
system.cpu.iq.FU_type_0::FloatMemWrite            415      0.00%    100.00% # Type of FU issued
system.cpu.iq.FU_type_0::IprAccess                  0      0.00%    100.00% # Type of FU issued
system.cpu.iq.FU_type_0::InstPrefetch               0      0.00%    100.00% # Type of FU issued
system.cpu.iq.FU_type_0::total                9022749                       # Type of FU issued
system.cpu.iq.rate                           2.200448                       # Inst issue rate
system.cpu.iq.fu_busy_cnt                       43915                       # FU busy when requested
system.cpu.iq.fu_busy_rate                   0.004867                       # FU busy rate (busy events/executed inst)
system.cpu.iq.int_inst_queue_reads           22145573                       # Number of integer instruction queue reads
system.cpu.iq.int_inst_queue_writes           8819845                       # Number of integer instruction queue writes
system.cpu.iq.int_inst_queue_wakeup_accesses      8691550                       # Number of integer instruction queue wakeup accesses
system.cpu.iq.fp_inst_queue_reads                9827                       # Number of floating instruction queue reads
system.cpu.iq.fp_inst_queue_writes               9466                       # Number of floating instruction queue writes
system.cpu.iq.fp_inst_queue_wakeup_accesses         4424                       # Number of floating instruction queue wakeup accesses
system.cpu.iq.vec_inst_queue_reads                  0                       # Number of vector instruction queue reads
system.cpu.iq.vec_inst_queue_writes                 0                       # Number of vector instruction queue writes
system.cpu.iq.vec_inst_queue_wakeup_accesses            0                       # Number of vector instruction queue wakeup accesses
system.cpu.iq.int_alu_accesses                9059557                       # Number of integer alu accesses
system.cpu.iq.fp_alu_accesses                    4919                       # Number of floating point alu accesses
system.cpu.iq.vec_alu_accesses                      0                       # Number of vector alu accesses
system.cpu.iew.lsq.thread0.forwLoads             2400                       # Number of loads that had data forwarded from stores
system.cpu.iew.lsq.thread0.invAddrLoads             0                       # Number of loads ignored due to an invalid address
system.cpu.iew.lsq.thread0.squashedLoads        13787                       # Number of loads squashed
system.cpu.iew.lsq.thread0.ignoredResponses            7                       # Number of memory responses ignored because the instruction is squashed
system.cpu.iew.lsq.thread0.memOrderViolation           42                       # Number of memory ordering violations
system.cpu.iew.lsq.thread0.squashedStores         6458                       # Number of stores squashed
system.cpu.iew.lsq.thread0.invAddrSwpfs             0                       # Number of software prefetches ignored due to an invalid address
system.cpu.iew.lsq.thread0.blockedLoads             0                       # Number of blocked loads due to partial load-store forwarding
system.cpu.iew.lsq.thread0.rescheduledLoads            5                       # Number of loads that were rescheduled
system.cpu.iew.lsq.thread0.cacheBlocked        318056                       # Number of times an access to memory failed due to the cache being blocked
system.cpu.iew.iewIdleCycles                        0                       # Number of cycles IEW is idle
system.cpu.iew.iewSquashCycles                   2733                       # Number of cycles IEW is squashing
system.cpu.iew.iewBlockCycles                   41643                       # Number of cycles IEW is blocking
system.cpu.iew.iewUnblockCycles                  4678                       # Number of cycles IEW is unblocking
system.cpu.iew.iewDispatchedInsts             8736687                       # Number of instructions dispatched to IQ
system.cpu.iew.iewDispSquashedInsts               134                       # Number of squashed instructions skipped by dispatch
system.cpu.iew.iewDispLoadInsts                534059                       # Number of dispatched load instructions
system.cpu.iew.iewDispStoreInsts                16213                       # Number of dispatched store instructions
system.cpu.iew.iewDispNonSpecInsts                 58                       # Number of dispatched non-speculative instructions
system.cpu.iew.iewIQFullEvents                    622                       # Number of times the IQ has become full, causing a stall
system.cpu.iew.iewLSQFullEvents                  3841                       # Number of times the LSQ has become full, causing a stall
system.cpu.iew.memOrderViolationEvents             42                       # Number of memory order violations
system.cpu.iew.predictedTakenIncorrect            669                       # Number of branches that were predicted taken incorrectly
system.cpu.iew.predictedNotTakenIncorrect         2746                       # Number of branches that were predicted not taken incorrectly
system.cpu.iew.branchMispredicts                 3415                       # Number of branch mispredicts detected at execute
system.cpu.iew.iewExecutedInsts               9017264                       # Number of executed instructions
system.cpu.iew.iewExecLoadInsts                847014                       # Number of load instructions executed
system.cpu.iew.iewExecSquashedInsts              5485                       # Number of squashed instructions skipped in execute
system.cpu.iew.exec_swp                             0                       # number of swp insts executed
system.cpu.iew.exec_nop                             0                       # number of nop insts executed
system.cpu.iew.exec_refs                       860506                       # number of memory reference insts executed
system.cpu.iew.exec_branches                   518438                       # Number of branches executed
system.cpu.iew.exec_stores                      13492                       # Number of stores executed
system.cpu.iew.exec_rate                     2.199111                       # Inst execution rate
system.cpu.iew.wb_sent                        8697347                       # cumulative count of insts sent to commit
system.cpu.iew.wb_count                       8695974                       # cumulative count of insts written-back
system.cpu.iew.wb_producers                   7928837                       # num instructions producing a value
system.cpu.iew.wb_consumers                  14535811                       # num instructions consuming a value
system.cpu.iew.wb_rate                       2.120755                       # insts written-back per cycle
system.cpu.iew.wb_fanout                     0.545469                       # average fanout of values written-back
system.cpu.commit.commitSquashedInsts           92732                       # The number of squashed insts skipped by commit
system.cpu.commit.commitNonSpecStalls              27                       # The number of times commit has been forced to stall to communicate backwards
system.cpu.commit.branchMispredicts              2704                       # The number of times a branch was mispredicted
system.cpu.commit.committed_per_cycle::samples      4051294                       # Number of insts commited each cycle
system.cpu.commit.committed_per_cycle::mean     2.133664                       # Number of insts commited each cycle
system.cpu.commit.committed_per_cycle::stdev     3.405429                       # Number of insts commited each cycle
system.cpu.commit.committed_per_cycle::underflows            0      0.00%      0.00% # Number of insts commited each cycle
system.cpu.commit.committed_per_cycle::0      2532078     62.50%     62.50% # Number of insts commited each cycle
system.cpu.commit.committed_per_cycle::1       485489     11.98%     74.48% # Number of insts commited each cycle
system.cpu.commit.committed_per_cycle::2         7683      0.19%     74.67% # Number of insts commited each cycle
system.cpu.commit.committed_per_cycle::3         8006      0.20%     74.87% # Number of insts commited each cycle
system.cpu.commit.committed_per_cycle::4         3457      0.09%     74.96% # Number of insts commited each cycle
system.cpu.commit.committed_per_cycle::5         2659      0.07%     75.02% # Number of insts commited each cycle
system.cpu.commit.committed_per_cycle::6         1124      0.03%     75.05% # Number of insts commited each cycle
system.cpu.commit.committed_per_cycle::7         1025      0.03%     75.08% # Number of insts commited each cycle
system.cpu.commit.committed_per_cycle::8      1009773     24.92%    100.00% # Number of insts commited each cycle
system.cpu.commit.committed_per_cycle::overflows            0      0.00%    100.00% # Number of insts commited each cycle
system.cpu.commit.committed_per_cycle::min_value            0                       # Number of insts commited each cycle
system.cpu.commit.committed_per_cycle::max_value            8                       # Number of insts commited each cycle
system.cpu.commit.committed_per_cycle::total      4051294                       # Number of insts commited each cycle
system.cpu.commit.committedInsts              5577901                       # Number of instructions committed
system.cpu.commit.committedOps                8644099                       # Number of ops (including micro ops) committed
system.cpu.commit.swp_count                         0                       # Number of s/w prefetches committed
system.cpu.commit.refs                         530027                       # Number of memory references committed
system.cpu.commit.loads                        520272                       # Number of loads committed
system.cpu.commit.membars                           0                       # Number of memory barriers committed
system.cpu.commit.branches                     515040                       # Number of branches committed
system.cpu.commit.vec_insts                         0                       # Number of committed Vector instructions.
system.cpu.commit.fp_insts                       3004                       # Number of committed floating point instructions.
system.cpu.commit.int_insts                   8641212                       # Number of committed integer instructions.
system.cpu.commit.function_calls                  588                       # Number of function calls committed.
system.cpu.commit.op_class_0::No_OpClass         1155      0.01%      0.01% # Class of committed instruction
system.cpu.commit.op_class_0::IntAlu          8109864     93.82%     93.83% # Class of committed instruction
system.cpu.commit.op_class_0::IntMult              11      0.00%     93.83% # Class of committed instruction
system.cpu.commit.op_class_0::IntDiv             1083      0.01%     93.85% # Class of committed instruction
system.cpu.commit.op_class_0::FloatAdd             18      0.00%     93.85% # Class of committed instruction
system.cpu.commit.op_class_0::FloatCmp              0      0.00%     93.85% # Class of committed instruction
system.cpu.commit.op_class_0::FloatCvt              0      0.00%     93.85% # Class of committed instruction
system.cpu.commit.op_class_0::FloatMult             0      0.00%     93.85% # Class of committed instruction
system.cpu.commit.op_class_0::FloatMultAcc            0      0.00%     93.85% # Class of committed instruction
system.cpu.commit.op_class_0::FloatDiv              0      0.00%     93.85% # Class of committed instruction
system.cpu.commit.op_class_0::FloatMisc             0      0.00%     93.85% # Class of committed instruction
system.cpu.commit.op_class_0::FloatSqrt             0      0.00%     93.85% # Class of committed instruction
system.cpu.commit.op_class_0::SimdAdd             284      0.00%     93.85% # Class of committed instruction
system.cpu.commit.op_class_0::SimdAddAcc            0      0.00%     93.85% # Class of committed instruction
system.cpu.commit.op_class_0::SimdAlu             403      0.00%     93.85% # Class of committed instruction
system.cpu.commit.op_class_0::SimdCmp               6      0.00%     93.85% # Class of committed instruction
system.cpu.commit.op_class_0::SimdCvt             664      0.01%     93.86% # Class of committed instruction
system.cpu.commit.op_class_0::SimdMisc            482      0.01%     93.87% # Class of committed instruction
system.cpu.commit.op_class_0::SimdMult              0      0.00%     93.87% # Class of committed instruction
system.cpu.commit.op_class_0::SimdMultAcc            0      0.00%     93.87% # Class of committed instruction
system.cpu.commit.op_class_0::SimdShift           102      0.00%     93.87% # Class of committed instruction
system.cpu.commit.op_class_0::SimdShiftAcc            0      0.00%     93.87% # Class of committed instruction
system.cpu.commit.op_class_0::SimdSqrt              0      0.00%     93.87% # Class of committed instruction
system.cpu.commit.op_class_0::SimdFloatAdd            0      0.00%     93.87% # Class of committed instruction
system.cpu.commit.op_class_0::SimdFloatAlu            0      0.00%     93.87% # Class of committed instruction
system.cpu.commit.op_class_0::SimdFloatCmp            0      0.00%     93.87% # Class of committed instruction
system.cpu.commit.op_class_0::SimdFloatCvt            0      0.00%     93.87% # Class of committed instruction
system.cpu.commit.op_class_0::SimdFloatDiv            0      0.00%     93.87% # Class of committed instruction
system.cpu.commit.op_class_0::SimdFloatMisc            0      0.00%     93.87% # Class of committed instruction
system.cpu.commit.op_class_0::SimdFloatMult            0      0.00%     93.87% # Class of committed instruction
system.cpu.commit.op_class_0::SimdFloatMultAcc            0      0.00%     93.87% # Class of committed instruction
system.cpu.commit.op_class_0::SimdFloatSqrt            0      0.00%     93.87% # Class of committed instruction
system.cpu.commit.op_class_0::SimdAes               0      0.00%     93.87% # Class of committed instruction
system.cpu.commit.op_class_0::SimdAesMix            0      0.00%     93.87% # Class of committed instruction
system.cpu.commit.op_class_0::SimdSha1Hash            0      0.00%     93.87% # Class of committed instruction
system.cpu.commit.op_class_0::SimdSha1Hash2            0      0.00%     93.87% # Class of committed instruction
system.cpu.commit.op_class_0::SimdSha256Hash            0      0.00%     93.87% # Class of committed instruction
system.cpu.commit.op_class_0::SimdSha256Hash2            0      0.00%     93.87% # Class of committed instruction
system.cpu.commit.op_class_0::SimdShaSigma2            0      0.00%     93.87% # Class of committed instruction
system.cpu.commit.op_class_0::SimdShaSigma3            0      0.00%     93.87% # Class of committed instruction
system.cpu.commit.op_class_0::MemRead          519610      6.01%     99.88% # Class of committed instruction
system.cpu.commit.op_class_0::MemWrite           9419      0.11%     99.99% # Class of committed instruction
system.cpu.commit.op_class_0::FloatMemRead          662      0.01%    100.00% # Class of committed instruction
system.cpu.commit.op_class_0::FloatMemWrite          336      0.00%    100.00% # Class of committed instruction
system.cpu.commit.op_class_0::IprAccess             0      0.00%    100.00% # Class of committed instruction
system.cpu.commit.op_class_0::InstPrefetch            0      0.00%    100.00% # Class of committed instruction
system.cpu.commit.op_class_0::total           8644099                       # Class of committed instruction
system.cpu.commit.bw_lim_events               1009773                       # number cycles where commit BW limit reached
system.cpu.rob.rob_reads                     11778352                       # The number of ROB reads
system.cpu.rob.rob_writes                    17487865                       # The number of ROB writes
system.cpu.timesIdled                             469                       # Number of times that the entire CPU went into an idle state and unscheduled itself
system.cpu.idleCycles                           35091                       # Total number of cycles that the CPU has spent unscheduled due to idling
system.cpu.committedInsts                     5577901                       # Number of Instructions Simulated
system.cpu.committedOps                       8644099                       # Number of Ops (including micro ops) Simulated
system.cpu.cpi                               0.735118                       # CPI: Cycles Per Instruction
system.cpu.cpi_total                         0.735118                       # CPI: Total CPI of All Threads
system.cpu.ipc                               1.360326                       # IPC: Instructions Per Cycle
system.cpu.ipc_total                         1.360326                       # IPC: Total IPC of All Threads
system.cpu.int_regfile_reads                 13922834                       # number of integer regfile reads
system.cpu.int_regfile_writes                 8162197                       # number of integer regfile writes
system.cpu.fp_regfile_reads                      7001                       # number of floating regfile reads
system.cpu.fp_regfile_writes                     3638                       # number of floating regfile writes
system.cpu.cc_regfile_reads                   5101194                       # number of cc regfile reads
system.cpu.cc_regfile_writes                  8068186                       # number of cc regfile writes
system.cpu.misc_regfile_reads                 1901959                       # number of misc regfile reads
system.cpu.dcache.tags.pwrStateResidencyTicks::UNDEFINED   4100413000                       # Cumulative time (in ticks) in various power states
system.cpu.dcache.tags.tagsinuse          1008.217698                       # Cycle average of tags in use
system.cpu.dcache.tags.total_refs              531930                       # Total number of references to valid blocks.
system.cpu.dcache.tags.sampled_refs            493748                       # Sample count of references to valid blocks.
system.cpu.dcache.tags.avg_refs              1.077331                       # Average number of references to valid blocks.
system.cpu.dcache.tags.warmup_cycle            232000                       # Cycle when the warmup percentage was hit.
system.cpu.dcache.tags.occ_blocks::.cpu.data  1008.217698                       # Average occupied blocks per requestor
system.cpu.dcache.tags.occ_percent::.cpu.data     0.984588                       # Average percentage of cache occupancy
system.cpu.dcache.tags.occ_percent::total     0.984588                       # Average percentage of cache occupancy
system.cpu.dcache.tags.occ_task_id_blocks::1024         1024                       # Occupied blocks per task id
system.cpu.dcache.tags.age_task_id_blocks_1024::0          445                       # Occupied blocks per task id
[...]
system.l2.ReadCleanReq_accesses::total            816                       # number of ReadCleanReq accesses(hits+misses)
system.l2.ReadSharedReq_accesses::.cpu.data       493322                       # number of ReadSharedReq accesses(hits+misses)
system.l2.ReadSharedReq_accesses::total        493322                       # number of ReadSharedReq accesses(hits+misses)
system.l2.demand_accesses::.cpu.inst              816                       # number of demand (read+write) accesses
system.l2.demand_accesses::.cpu.data           493748                       # number of demand (read+write) accesses
system.l2.demand_accesses::total               494564                       # number of demand (read+write) accesses
system.l2.overall_accesses::.cpu.inst             816                       # number of overall (read+write) accesses
system.l2.overall_accesses::.cpu.data          493748                       # number of overall (read+write) accesses
system.l2.overall_accesses::total              494564                       # number of overall (read+write) accesses
system.l2.ReadExReq_miss_rate::.cpu.data     0.985915                       # miss rate for ReadExReq accesses
system.l2.ReadExReq_miss_rate::total         0.985915                       # miss rate for ReadExReq accesses
system.l2.ReadCleanReq_miss_rate::.cpu.inst     0.985294                       # miss rate for ReadCleanReq accesses
system.l2.ReadCleanReq_miss_rate::total      0.985294                       # miss rate for ReadCleanReq accesses
system.l2.ReadSharedReq_miss_rate::.cpu.data     0.068773                       # miss rate for ReadSharedReq accesses
system.l2.ReadSharedReq_miss_rate::total     0.068773                       # miss rate for ReadSharedReq accesses
system.l2.demand_miss_rate::.cpu.inst        0.985294                       # miss rate for demand accesses
system.l2.demand_miss_rate::.cpu.data        0.069564                       # miss rate for demand accesses
system.l2.demand_miss_rate::total            0.071075                       # miss rate for demand accesses
system.l2.overall_miss_rate::.cpu.inst       0.985294                       # miss rate for overall accesses
system.l2.overall_miss_rate::.cpu.data       0.069564                       # miss rate for overall accesses
system.l2.overall_miss_rate::total           0.071075                       # miss rate for overall accesses
system.l2.ReadExReq_avg_miss_latency::.cpu.data       101450                       # average ReadExReq miss latency
system.l2.ReadExReq_avg_miss_latency::total       101450                       # average ReadExReq miss latency
system.l2.ReadCleanReq_avg_miss_latency::.cpu.inst 105511.194030                       # average ReadCleanReq miss latency
system.l2.ReadCleanReq_avg_miss_latency::total 105511.194030                       # average ReadCleanReq miss latency
system.l2.ReadSharedReq_avg_miss_latency::.cpu.data 126096.737112                       # average ReadSharedReq miss latency
system.l2.ReadSharedReq_avg_miss_latency::total 126096.737112                       # average ReadSharedReq miss latency
system.l2.demand_avg_miss_latency::.cpu.inst 105511.194030                       # average overall miss latency
system.l2.demand_avg_miss_latency::.cpu.data 125795.353306                       # average overall miss latency
system.l2.demand_avg_miss_latency::total 125331.398822                       # average overall miss latency
system.l2.overall_avg_miss_latency::.cpu.inst 105511.194030                       # average overall miss latency
system.l2.overall_avg_miss_latency::.cpu.data 125795.353306                       # average overall miss latency
system.l2.overall_avg_miss_latency::total 125331.398822                       # average overall miss latency
system.l2.blocked_cycles::no_mshrs                  0                       # number of cycles access was blocked
system.l2.blocked_cycles::no_targets                0                       # number of cycles access was blocked
system.l2.blocked::no_mshrs                         0                       # number of cycles access was blocked
system.l2.blocked::no_targets                       0                       # number of cycles access was blocked
system.l2.avg_blocked_cycles::no_mshrs            nan                       # average number of cycles each access was blocked
system.l2.avg_blocked_cycles::no_targets          nan                       # average number of cycles each access was blocked
system.l2.writebacks::.writebacks                 472                       # number of writebacks
system.l2.writebacks::total                       472                       # number of writebacks
system.l2.ReadExReq_mshr_misses::.cpu.data          420                       # number of ReadExReq MSHR misses
system.l2.ReadExReq_mshr_misses::total            420                       # number of ReadExReq MSHR misses
system.l2.ReadCleanReq_mshr_misses::.cpu.inst          804                       # number of ReadCleanReq MSHR misses
system.l2.ReadCleanReq_mshr_misses::total          804                       # number of ReadCleanReq MSHR misses
system.l2.ReadSharedReq_mshr_misses::.cpu.data        33927                       # number of ReadSharedReq MSHR misses
system.l2.ReadSharedReq_mshr_misses::total        33927                       # number of ReadSharedReq MSHR misses
system.l2.demand_mshr_misses::.cpu.inst           804                       # number of demand (read+write) MSHR misses
system.l2.demand_mshr_misses::.cpu.data         34347                       # number of demand (read+write) MSHR misses
system.l2.demand_mshr_misses::total             35151                       # number of demand (read+write) MSHR misses
system.l2.overall_mshr_misses::.cpu.inst          804                       # number of overall MSHR misses
system.l2.overall_mshr_misses::.cpu.data        34347                       # number of overall MSHR misses
system.l2.overall_mshr_misses::total            35151                       # number of overall MSHR misses
system.l2.ReadExReq_mshr_miss_latency::.cpu.data     34209000                       # number of ReadExReq MSHR miss cycles
system.l2.ReadExReq_mshr_miss_latency::total     34209000                       # number of ReadExReq MSHR miss cycles
system.l2.ReadCleanReq_mshr_miss_latency::.cpu.inst     68751000                       # number of ReadCleanReq MSHR miss cycles
system.l2.ReadCleanReq_mshr_miss_latency::total     68751000                       # number of ReadCleanReq MSHR miss cycles
system.l2.ReadSharedReq_mshr_miss_latency::.cpu.data   3599544000                       # number of ReadSharedReq MSHR miss cycles
system.l2.ReadSharedReq_mshr_miss_latency::total   3599544000                       # number of ReadSharedReq MSHR miss cycles
system.l2.demand_mshr_miss_latency::.cpu.inst     68751000                       # number of demand (read+write) MSHR miss cycles
system.l2.demand_mshr_miss_latency::.cpu.data   3633753000                       # number of demand (read+write) MSHR miss cycles
system.l2.demand_mshr_miss_latency::total   3702504000                       # number of demand (read+write) MSHR miss cycles
system.l2.overall_mshr_miss_latency::.cpu.inst     68751000                       # number of overall MSHR miss cycles
system.l2.overall_mshr_miss_latency::.cpu.data   3633753000                       # number of overall MSHR miss cycles
system.l2.overall_mshr_miss_latency::total   3702504000                       # number of overall MSHR miss cycles
system.l2.ReadExReq_mshr_miss_rate::.cpu.data     0.985915                       # mshr miss rate for ReadExReq accesses
system.l2.ReadExReq_mshr_miss_rate::total     0.985915                       # mshr miss rate for ReadExReq accesses
system.l2.ReadCleanReq_mshr_miss_rate::.cpu.inst     0.985294                       # mshr miss rate for ReadCleanReq accesses
system.l2.ReadCleanReq_mshr_miss_rate::total     0.985294                       # mshr miss rate for ReadCleanReq accesses
system.l2.ReadSharedReq_mshr_miss_rate::.cpu.data     0.068773                       # mshr miss rate for ReadSharedReq accesses
system.l2.ReadSharedReq_mshr_miss_rate::total     0.068773                       # mshr miss rate for ReadSharedReq accesses
system.l2.demand_mshr_miss_rate::.cpu.inst     0.985294                       # mshr miss rate for demand accesses
system.l2.demand_mshr_miss_rate::.cpu.data     0.069564                       # mshr miss rate for demand accesses
system.l2.demand_mshr_miss_rate::total       0.071075                       # mshr miss rate for demand accesses
system.l2.overall_mshr_miss_rate::.cpu.inst     0.985294                       # mshr miss rate for overall accesses
system.l2.overall_mshr_miss_rate::.cpu.data     0.069564                       # mshr miss rate for overall accesses
system.l2.overall_mshr_miss_rate::total      0.071075                       # mshr miss rate for overall accesses
system.l2.ReadExReq_avg_mshr_miss_latency::.cpu.data        81450                       # average ReadExReq mshr miss latency
system.l2.ReadExReq_avg_mshr_miss_latency::total        81450                       # average ReadExReq mshr miss latency
system.l2.ReadCleanReq_avg_mshr_miss_latency::.cpu.inst 85511.194030                       # average ReadCleanReq mshr miss latency
system.l2.ReadCleanReq_avg_mshr_miss_latency::total 85511.194030                       # average ReadCleanReq mshr miss latency
system.l2.ReadSharedReq_avg_mshr_miss_latency::.cpu.data 106096.737112                       # average ReadSharedReq mshr miss latency
system.l2.ReadSharedReq_avg_mshr_miss_latency::total 106096.737112                       # average ReadSharedReq mshr miss latency
system.l2.demand_avg_mshr_miss_latency::.cpu.inst 85511.194030                       # average overall mshr miss latency
system.l2.demand_avg_mshr_miss_latency::.cpu.data 105795.353306                       # average overall mshr miss latency
system.l2.demand_avg_mshr_miss_latency::total 105331.398822                       # average overall mshr miss latency
system.l2.overall_avg_mshr_miss_latency::.cpu.inst 85511.194030                       # average overall mshr miss latency
system.l2.overall_avg_mshr_miss_latency::.cpu.data 105795.353306                       # average overall mshr miss latency
system.l2.overall_avg_mshr_miss_latency::total 105331.398822                       # average overall mshr miss latency
system.l2.replacements                           2410                       # number of replacements
system.membus.snoop_filter.tot_requests         36861                       # Total number of requests made to the snoop filter.
system.membus.snoop_filter.hit_single_requests         1710                       # Number of requests hitting in the snoop filter with a single holder of the requested data.
system.membus.snoop_filter.hit_multi_requests            0                       # Number of requests hitting in the snoop filter with multiple (>1) holders of the requested data.
system.membus.snoop_filter.tot_snoops               0                       # Total number of snoops made to the snoop filter.
system.membus.snoop_filter.hit_single_snoops            0                       # Number of snoops hitting in the snoop filter with a single holder of the requested data.
system.membus.snoop_filter.hit_multi_snoops            0                       # Number of snoops hitting in the snoop filter with multiple (>1) holders of the requested data.
system.membus.pwrStateResidencyTicks::UNDEFINED   4100413000                       # Cumulative time (in ticks) in various power states
system.membus.trans_dist::ReadResp              34731                       # Transaction distribution
system.membus.trans_dist::WritebackDirty          472                       # Transaction distribution
system.membus.trans_dist::CleanEvict             1238                       # Transaction distribution
system.membus.trans_dist::ReadExReq               420                       # Transaction distribution
system.membus.trans_dist::ReadExResp              420                       # Transaction distribution
system.membus.trans_dist::ReadSharedReq         34731                       # Transaction distribution
system.membus.pkt_count_system.l2.mem_side::system.mem_ctrls.port        72012                       # Packet count per connected master and slave (bytes)
system.membus.pkt_count_system.l2.mem_side::total        72012                       # Packet count per connected master and slave (bytes)
system.membus.pkt_count::total                  72012                       # Packet count per connected master and slave (bytes)
system.membus.pkt_size_system.l2.mem_side::system.mem_ctrls.port      2279872                       # Cumulative packet size per connected master and slave (bytes)
system.membus.pkt_size_system.l2.mem_side::total      2279872                       # Cumulative packet size per connected master and slave (bytes)
system.membus.pkt_size::total                 2279872                       # Cumulative packet size per connected master and slave (bytes)
system.membus.snoops                                0                       # Total snoops (count)
system.membus.snoopTraffic                          0                       # Total snoop traffic (bytes)
system.membus.snoop_fanout::samples             35151                       # Request fanout histogram
system.membus.snoop_fanout::mean                    0                       # Request fanout histogram
system.membus.snoop_fanout::stdev                   0                       # Request fanout histogram
system.membus.snoop_fanout::underflows              0      0.00%      0.00% # Request fanout histogram
system.membus.snoop_fanout::0                   35151    100.00%    100.00% # Request fanout histogram
system.membus.snoop_fanout::1                       0      0.00%    100.00% # Request fanout histogram
system.membus.snoop_fanout::overflows               0      0.00%    100.00% # Request fanout histogram
system.membus.snoop_fanout::min_value               0                       # Request fanout histogram
system.membus.snoop_fanout::max_value               0                       # Request fanout histogram
system.membus.snoop_fanout::total               35151                       # Request fanout histogram
system.membus.reqLayer2.occupancy            38749000                       # Layer occupancy (ticks)
system.membus.reqLayer2.utilization               0.9                       # Layer utilization (%)
system.membus.respLayer1.occupancy          196979500                       # Layer occupancy (ticks)
system.membus.respLayer1.utilization              4.8                       # Layer utilization (%)
system.tol2bus.snoop_filter.tot_requests       987376                       # Total number of requests made to the snoop filter.
system.tol2bus.snoop_filter.hit_single_requests       492813                       # Number of requests hitting in the snoop filter with a single holder of the requested data.
system.tol2bus.snoop_filter.hit_multi_requests            6                       # Number of requests hitting in the snoop filter with multiple (>1) holders of the requested data.
system.tol2bus.snoop_filter.tot_snoops            699                       # Total number of snoops made to the snoop filter.
system.tol2bus.snoop_filter.hit_single_snoops          699                       # Number of snoops hitting in the snoop filter with a single holder of the requested data.
system.tol2bus.snoop_filter.hit_multi_snoops            0                       # Number of snoops hitting in the snoop filter with multiple (>1) holders of the requested data.
system.tol2bus.pwrStateResidencyTicks::UNDEFINED   4100413000                       # Cumulative time (in ticks) in various power states
system.tol2bus.trans_dist::ReadResp            494138                       # Transaction distribution
system.tol2bus.trans_dist::WritebackDirty         1006                       # Transaction distribution
system.tol2bus.trans_dist::WritebackClean           88                       # Transaction distribution
system.tol2bus.trans_dist::CleanEvict          494128                       # Transaction distribution
system.tol2bus.trans_dist::ReadExReq              426                       # Transaction distribution
system.tol2bus.trans_dist::ReadExResp             426                       # Transaction distribution
system.tol2bus.trans_dist::ReadCleanReq           816                       # Transaction distribution
system.tol2bus.trans_dist::ReadSharedReq       493322                       # Transaction distribution
system.tol2bus.pkt_count_system.cpu.icache.mem_side::system.l2.cpu_side         1720                       # Packet count per connected master and slave (bytes)
system.tol2bus.pkt_count_system.cpu.dcache.mem_side::system.l2.cpu_side      1480220                       # Packet count per connected master and slave (bytes)
system.tol2bus.pkt_count::total               1481940                       # Packet count per connected master and slave (bytes)
system.tol2bus.pkt_size_system.cpu.icache.mem_side::system.l2.cpu_side        57856                       # Cumulative packet size per connected master and slave (bytes)
system.tol2bus.pkt_size_system.cpu.dcache.mem_side::system.l2.cpu_side     31634048                       # Cumulative packet size per connected master and slave (bytes)
system.tol2bus.pkt_size::total               31691904                       # Cumulative packet size per connected master and slave (bytes)
system.tol2bus.snoops                            2410                       # Total snoops (count)
system.tol2bus.snoopTraffic                     30208                       # Total snoop traffic (bytes)
system.tol2bus.snoop_fanout::samples           496974                       # Request fanout histogram
system.tol2bus.snoop_fanout::mean            0.001421                       # Request fanout histogram
system.tol2bus.snoop_fanout::stdev           0.037664                       # Request fanout histogram
system.tol2bus.snoop_fanout::underflows             0      0.00%      0.00% # Request fanout histogram
system.tol2bus.snoop_fanout::0                 496268     99.86%     99.86% # Request fanout histogram
system.tol2bus.snoop_fanout::1                    706      0.14%    100.00% # Request fanout histogram
system.tol2bus.snoop_fanout::2                      0      0.00%    100.00% # Request fanout histogram
system.tol2bus.snoop_fanout::3                      0      0.00%    100.00% # Request fanout histogram
system.tol2bus.snoop_fanout::4                      0      0.00%    100.00% # Request fanout histogram
system.tol2bus.snoop_fanout::overflows              0      0.00%    100.00% # Request fanout histogram
system.tol2bus.snoop_fanout::min_value              0                       # Request fanout histogram
system.tol2bus.snoop_fanout::max_value              1                       # Request fanout histogram
system.tol2bus.snoop_fanout::total             496974                       # Request fanout histogram
system.tol2bus.reqLayer0.occupancy          988620000                       # Layer occupancy (ticks)
system.tol2bus.reqLayer0.utilization             24.1                       # Layer utilization (%)
system.tol2bus.respLayer0.occupancy           2448000                       # Layer occupancy (ticks)
system.tol2bus.respLayer0.utilization             0.1                       # Layer utilization (%)
system.tol2bus.respLayer1.occupancy        1481244000                       # Layer occupancy (ticks)
system.tol2bus.respLayer1.utilization            36.1                       # Layer utilization (%)

---------- End Simulation Statistics   ----------
