
---------- Begin Simulation Statistics ----------
sim_seconds                                  0.004217                       # Number of seconds simulated
sim_ticks                                  4217085000                       # Number of ticks simulated
final_tick                                 4217085000                       # Number of ticks from beginning of simulation (restored from checkpoints and never reset)
sim_freq                                 1000000000000                       # Frequency of simulated ticks
host_inst_rate                                  83642                       # Simulator instruction rate (inst/s)
host_op_rate                                   129621                       # Simulator op (including micro ops) rate (op/s)
host_tick_rate                               63236371                       # Simulator tick rate (ticks/s)
host_mem_usage                                 671476                       # Number of bytes of host memory used
host_seconds                                    66.69                       # Real time elapsed on the host
sim_insts                                     5577901                       # Number of instructions simulated
sim_ops                                       8644099                       # Number of ops (including micro ops) simulated
system.voltage_domain.voltage                       1                       # Voltage in Volts
system.clk_domain.clock                          1000                       # Clock period in ticks
system.mem_ctrls.pwrStateResidencyTicks::UNDEFINED   4217085000                       # Cumulative time (in ticks) in various power states
system.mem_ctrls.bytes_read::.cpu.inst          51904                       # Number of bytes read from this memory
system.mem_ctrls.bytes_read::.cpu.data        2193728                       # Number of bytes read from this memory
system.mem_ctrls.bytes_read::total            2245632                       # Number of bytes read from this memory
system.mem_ctrls.bytes_inst_read::.cpu.inst        51904                       # Number of instructions bytes read from this memory
system.mem_ctrls.bytes_inst_read::total         51904                       # Number of instructions bytes read from this memory
system.mem_ctrls.bytes_written::.writebacks        16000                       # Number of bytes written to this memory
system.mem_ctrls.bytes_written::total           16000                       # Number of bytes written to this memory
system.mem_ctrls.num_reads::.cpu.inst             811                       # Number of read requests responded to by this memory
system.mem_ctrls.num_reads::.cpu.data           34277                       # Number of read requests responded to by this memory
system.mem_ctrls.num_reads::total               35088                       # Number of read requests responded to by this memory
system.mem_ctrls.num_writes::.writebacks          250                       # Number of write requests responded to by this memory
system.mem_ctrls.num_writes::total                250                       # Number of write requests responded to by this memory
system.mem_ctrls.bw_read::.cpu.inst          12308028                       # Total read bandwidth from this memory (bytes/s)
system.mem_ctrls.bw_read::.cpu.data         520200091                       # Total read bandwidth from this memory (bytes/s)
system.mem_ctrls.bw_read::total             532508119                       # Total read bandwidth from this memory (bytes/s)
system.mem_ctrls.bw_inst_read::.cpu.inst     12308028                       # Instruction read bandwidth from this memory (bytes/s)
system.mem_ctrls.bw_inst_read::total         12308028                       # Instruction read bandwidth from this memory (bytes/s)
system.mem_ctrls.bw_write::.writebacks        3794090                       # Write bandwidth from this memory (bytes/s)
system.mem_ctrls.bw_write::total              3794090                       # Write bandwidth from this memory (bytes/s)
system.mem_ctrls.bw_total::.writebacks        3794090                       # Total bandwidth to/from this memory (bytes/s)
system.mem_ctrls.bw_total::.cpu.inst         12308028                       # Total bandwidth to/from this memory (bytes/s)
system.mem_ctrls.bw_total::.cpu.data        520200091                       # Total bandwidth to/from this memory (bytes/s)
system.mem_ctrls.bw_total::total            536302209                       # Total bandwidth to/from this memory (bytes/s)
system.mem_ctrls.avgPriority_.writebacks::samples       250.00                       # Average QoS priority value for accepted requests
system.mem_ctrls.avgPriority_.cpu.inst::samples       811.00                       # Average QoS priority value for accepted requests
system.mem_ctrls.avgPriority_.cpu.data::samples     34275.00                       # Average QoS priority value for accepted requests
system.mem_ctrls.priorityMinLatency      0.000000018750                       # per QoS priority minimum request to response latency (s)
system.mem_ctrls.priorityMaxLatency      0.000688944250                       # per QoS priority maximum request to response latency (s)
system.mem_ctrls.numReadWriteTurnArounds           14                       # Number of turnarounds from READ to WRITE
system.mem_ctrls.numWriteReadTurnArounds           14                       # Number of turnarounds from WRITE to READ
system.mem_ctrls.numStayReadState               65257                       # Number of times bus staying in READ state
system.mem_ctrls.numStayWriteState                219                       # Number of times bus staying in WRITE state
system.mem_ctrls.readReqs                       35088                       # Number of read requests accepted
system.mem_ctrls.writeReqs                        250                       # Number of write requests accepted
system.mem_ctrls.readBursts                     35088                       # Number of DRAM read bursts, including those serviced by the write queue
system.mem_ctrls.writeBursts                      250                       # Number of DRAM write bursts, including those merged in the write queue
system.mem_ctrls.bytesReadDRAM                2245504                       # Total number of bytes read from DRAM
system.mem_ctrls.bytesReadWrQ                     128                       # Total number of bytes read from write queue
system.mem_ctrls.bytesWritten                   14912                       # Total number of bytes written to DRAM
system.mem_ctrls.bytesReadSys                 2245632                       # Total read bytes from the system interface side
system.mem_ctrls.bytesWrittenSys                16000                       # Total written bytes from the system interface side
system.mem_ctrls.servicedByWrQ                      2                       # Number of DRAM read bursts serviced by the write queue
system.mem_ctrls.mergedWrBursts                     0                       # Number of DRAM write bursts merged with an existing one
system.mem_ctrls.neitherReadNorWriteReqs            0                       # Number of requests that are neither read nor write
system.mem_ctrls.perBankRdBursts::0              2122                       # Per bank write bursts
system.mem_ctrls.perBankRdBursts::1              2139                       # Per bank write bursts
system.mem_ctrls.perBankRdBursts::2              2259                       # Per bank write bursts
system.mem_ctrls.perBankRdBursts::3              2219                       # Per bank write bursts
system.mem_ctrls.perBankRdBursts::4              2207                       # Per bank write bursts
system.mem_ctrls.perBankRdBursts::5              2219                       # Per bank write bursts
system.mem_ctrls.perBankRdBursts::6              2258                       # Per bank write bursts
system.mem_ctrls.perBankRdBursts::7              2168                       # Per bank write bursts
system.mem_ctrls.perBankRdBursts::8              2223                       # Per bank write bursts
system.mem_ctrls.perBankRdBursts::9              2243                       # Per bank write bursts
system.mem_ctrls.perBankRdBursts::10             2249                       # Per bank write bursts
system.mem_ctrls.perBankRdBursts::11             2200                       # Per bank write bursts
system.mem_ctrls.perBankRdBursts::12             2186                       # Per bank write bursts
system.mem_ctrls.perBankRdBursts::13             2152                       # Per bank write bursts
system.mem_ctrls.perBankRdBursts::14             2125                       # Per bank write bursts
system.mem_ctrls.perBankRdBursts::15             2117                       # Per bank write bursts
system.mem_ctrls.perBankWrBursts::0                 2                       # Per bank write bursts
system.mem_ctrls.perBankWrBursts::1                20                       # Per bank write bursts
system.mem_ctrls.perBankWrBursts::2                83                       # Per bank write bursts
system.mem_ctrls.perBankWrBursts::3                69                       # Per bank write bursts
system.mem_ctrls.perBankWrBursts::4                17                       # Per bank write bursts
system.mem_ctrls.perBankWrBursts::5                12                       # Per bank write bursts
system.mem_ctrls.perBankWrBursts::6                14                       # Per bank write bursts
system.mem_ctrls.perBankWrBursts::7                 1                       # Per bank write bursts
system.mem_ctrls.perBankWrBursts::8                 0                       # Per bank write bursts
system.mem_ctrls.perBankWrBursts::9                 0                       # Per bank write bursts
system.mem_ctrls.perBankWrBursts::10                0                       # Per bank write bursts
system.mem_ctrls.perBankWrBursts::11                0                       # Per bank write bursts
system.mem_ctrls.perBankWrBursts::12               15                       # Per bank write bursts
system.mem_ctrls.perBankWrBursts::13                0                       # Per bank write bursts
system.mem_ctrls.perBankWrBursts::14                0                       # Per bank write bursts
system.mem_ctrls.perBankWrBursts::15                0                       # Per bank write bursts
system.mem_ctrls.numRdRetry                         0                       # Number of times read queue was full causing retry
system.mem_ctrls.numWrRetry                         0                       # Number of times write queue was full causing retry
system.mem_ctrls.totGap                    4216973000                       # Total gap between requests
system.mem_ctrls.readPktSize::0                     0                       # Read request sizes (log2)
system.mem_ctrls.readPktSize::1                     0                       # Read request sizes (log2)
system.mem_ctrls.readPktSize::2                     0                       # Read request sizes (log2)
system.mem_ctrls.readPktSize::3                     0                       # Read request sizes (log2)
system.mem_ctrls.readPktSize::4                     0                       # Read request sizes (log2)
system.mem_ctrls.readPktSize::5                     0                       # Read request sizes (log2)
system.mem_ctrls.readPktSize::6                 35088                       # Read request sizes (log2)
system.mem_ctrls.writePktSize::0                    0                       # Write request sizes (log2)
system.mem_ctrls.writePktSize::1                    0                       # Write request sizes (log2)
system.mem_ctrls.writePktSize::2                    0                       # Write request sizes (log2)
system.mem_ctrls.writePktSize::3                    0                       # Write request sizes (log2)
system.mem_ctrls.writePktSize::4                    0                       # Write request sizes (log2)
system.mem_ctrls.writePktSize::5                    0                       # Write request sizes (log2)
system.mem_ctrls.writePktSize::6                  250                       # Write request sizes (log2)
system.mem_ctrls.rdQLenPdf::0                   10899                       # What read queue length does an incoming req see
system.mem_ctrls.rdQLenPdf::1                   14457                       # What read queue length does an incoming req see
system.mem_ctrls.rdQLenPdf::2                    8042                       # What read queue length does an incoming req see
system.mem_ctrls.rdQLenPdf::3                    1683                       # What read queue length does an incoming req see
system.mem_ctrls.rdQLenPdf::4                       5                       # What read queue length does an incoming req see
system.mem_ctrls.rdQLenPdf::5                       0                       # What read queue length does an incoming req see
system.mem_ctrls.rdQLenPdf::6                       0                       # What read queue length does an incoming req see
system.mem_ctrls.rdQLenPdf::7                       0                       # What read queue length does an incoming req see
system.mem_ctrls.rdQLenPdf::8                       0                       # What read queue length does an incoming req see
system.mem_ctrls.rdQLenPdf::9                       0                       # What read queue length does an incoming req see
system.mem_ctrls.rdQLenPdf::10                      0                       # What read queue length does an incoming req see
system.mem_ctrls.rdQLenPdf::11                      0                       # What read queue length does an incoming req see
system.mem_ctrls.rdQLenPdf::12                      0                       # What read queue length does an incoming req see
system.mem_ctrls.rdQLenPdf::13                      0                       # What read queue length does an incoming req see
system.mem_ctrls.rdQLenPdf::14                      0                       # What read queue length does an incoming req see
system.mem_ctrls.rdQLenPdf::15                      0                       # What read queue length does an incoming req see
system.mem_ctrls.rdQLenPdf::16                      0                       # What read queue length does an incoming req see
system.mem_ctrls.rdQLenPdf::17                      0                       # What read queue length does an incoming req see
system.mem_ctrls.rdQLenPdf::18                      0                       # What read queue length does an incoming req see
system.mem_ctrls.rdQLenPdf::19                      0                       # What read queue length does an incoming req see
system.mem_ctrls.rdQLenPdf::20                      0                       # What read queue length does an incoming req see
system.mem_ctrls.rdQLenPdf::21                      0                       # What read queue length does an incoming req see
system.mem_ctrls.rdQLenPdf::22                      0                       # What read queue length does an incoming req see
system.mem_ctrls.rdQLenPdf::23                      0                       # What read queue length does an incoming req see
system.mem_ctrls.rdQLenPdf::24                      0                       # What read queue length does an incoming req see
system.mem_ctrls.rdQLenPdf::25                      0                       # What read queue length does an incoming req see
system.mem_ctrls.rdQLenPdf::26                      0                       # What read queue length does an incoming req see
system.mem_ctrls.rdQLenPdf::27                      0                       # What read queue length does an incoming req see
system.mem_ctrls.rdQLenPdf::28                      0                       # What read queue length does an incoming req see
system.mem_ctrls.rdQLenPdf::29                      0                       # What read queue length does an incoming req see
system.mem_ctrls.rdQLenPdf::30                      0                       # What read queue length does an incoming req see
system.mem_ctrls.rdQLenPdf::31                      0                       # What read queue length does an incoming req see
system.mem_ctrls.wrQLenPdf::0                       1                       # What write queue length does an incoming req see
system.mem_ctrls.wrQLenPdf::1                       1                       # What write queue length does an incoming req see
system.mem_ctrls.wrQLenPdf::2                       1                       # What write queue length does an incoming req see
system.mem_ctrls.wrQLenPdf::3                       1                       # What write queue length does an incoming req see
system.mem_ctrls.wrQLenPdf::4                       1                       # What write queue length does an incoming req see
system.mem_ctrls.wrQLenPdf::5                       1                       # What write queue length does an incoming req see
system.mem_ctrls.wrQLenPdf::6                       1                       # What write queue length does an incoming req see
system.mem_ctrls.wrQLenPdf::7                       1                       # What write queue length does an incoming req see
system.mem_ctrls.wrQLenPdf::8                       1                       # What write queue length does an incoming req see
system.mem_ctrls.wrQLenPdf::9                       1                       # What write queue length does an incoming req see
system.mem_ctrls.wrQLenPdf::10                      1                       # What write queue length does an incoming req see
system.mem_ctrls.wrQLenPdf::11                      1                       # What write queue length does an incoming req see
system.mem_ctrls.wrQLenPdf::12                      1                       # What write queue length does an incoming req see
system.mem_ctrls.wrQLenPdf::13                      1                       # What write queue length does an incoming req see
system.mem_ctrls.wrQLenPdf::14                      1                       # What write queue length does an incoming req see
system.mem_ctrls.wrQLenPdf::15                      5                       # What write queue length does an incoming req see
system.mem_ctrls.wrQLenPdf::16                      5                       # What write queue length does an incoming req see
system.mem_ctrls.wrQLenPdf::17                     14                       # What write queue length does an incoming req see
system.mem_ctrls.wrQLenPdf::18                     14                       # What write queue length does an incoming req see
system.mem_ctrls.wrQLenPdf::19                     14                       # What write queue length does an incoming req see
system.mem_ctrls.wrQLenPdf::20                     14                       # What write queue length does an incoming req see
system.mem_ctrls.wrQLenPdf::21                     14                       # What write queue length does an incoming req see
system.mem_ctrls.wrQLenPdf::22                     14                       # What write queue length does an incoming req see
system.mem_ctrls.wrQLenPdf::23                     14                       # What write queue length does an incoming req see
system.mem_ctrls.wrQLenPdf::24                     14                       # What write queue length does an incoming req see
system.mem_ctrls.wrQLenPdf::25                     14                       # What write queue length does an incoming req see
system.mem_ctrls.wrQLenPdf::26                     14                       # What write queue length does an incoming req see
system.mem_ctrls.wrQLenPdf::27                     14                       # What write queue length does an incoming req see
system.mem_ctrls.wrQLenPdf::28                     14                       # What write queue length does an incoming req see
system.mem_ctrls.wrQLenPdf::29                     14                       # What write queue length does an incoming req see
system.mem_ctrls.wrQLenPdf::30                     14                       # What write queue length does an incoming req see
system.mem_ctrls.wrQLenPdf::31                     15                       # What write queue length does an incoming req see
system.mem_ctrls.wrQLenPdf::32                     14                       # What write queue length does an incoming req see
system.mem_ctrls.wrQLenPdf::33                      0                       # What write queue length does an incoming req see
system.mem_ctrls.wrQLenPdf::34                      0                       # What write queue length does an incoming req see
system.mem_ctrls.wrQLenPdf::35                      0                       # What write queue length does an incoming req see
system.mem_ctrls.wrQLenPdf::36                      0                       # What write queue length does an incoming req see
system.mem_ctrls.wrQLenPdf::37                      0                       # What write queue length does an incoming req see
system.mem_ctrls.wrQLenPdf::38                      0                       # What write queue length does an incoming req see
system.mem_ctrls.wrQLenPdf::39                      0                       # What write queue length does an incoming req see
system.mem_ctrls.wrQLenPdf::40                      0                       # What write queue length does an incoming req see
system.mem_ctrls.wrQLenPdf::41                      0                       # What write queue length does an incoming req see
system.mem_ctrls.wrQLenPdf::42                      0                       # What write queue length does an incoming req see
system.mem_ctrls.wrQLenPdf::43                      0                       # What write queue length does an incoming req see
system.mem_ctrls.wrQLenPdf::44                      0                       # What write queue length does an incoming req see
system.mem_ctrls.wrQLenPdf::45                      0                       # What write queue length does an incoming req see
system.mem_ctrls.wrQLenPdf::46                      0                       # What write queue length does an incoming req see
system.mem_ctrls.wrQLenPdf::47                      0                       # What write queue length does an incoming req see
system.mem_ctrls.wrQLenPdf::48                      0                       # What write queue length does an incoming req see
system.mem_ctrls.wrQLenPdf::49                      0                       # What write queue length does an incoming req see
system.mem_ctrls.wrQLenPdf::50                      0                       # What write queue length does an incoming req see
system.mem_ctrls.wrQLenPdf::51                      0                       # What write queue length does an incoming req see
system.mem_ctrls.wrQLenPdf::52                      0                       # What write queue length does an incoming req see
system.mem_ctrls.wrQLenPdf::53                      0                       # What write queue length does an incoming req see
system.mem_ctrls.wrQLenPdf::54                      0                       # What write queue length does an incoming req see
system.mem_ctrls.wrQLenPdf::55                      0                       # What write queue length does an incoming req see
system.mem_ctrls.wrQLenPdf::56                      0                       # What write queue length does an incoming req see
system.mem_ctrls.wrQLenPdf::57                      0                       # What write queue length does an incoming req see
system.mem_ctrls.wrQLenPdf::58                      0                       # What write queue length does an incoming req see
system.mem_ctrls.wrQLenPdf::59                      0                       # What write queue length does an incoming req see
system.mem_ctrls.wrQLenPdf::60                      0                       # What write queue length does an incoming req see
system.mem_ctrls.wrQLenPdf::61                      0                       # What write queue length does an incoming req see
system.mem_ctrls.wrQLenPdf::62                      0                       # What write queue length does an incoming req see
system.mem_ctrls.wrQLenPdf::63                      0                       # What write queue length does an incoming req see
system.mem_ctrls.bytesPerActivate::samples        31488                       # Bytes accessed per row activation
system.mem_ctrls.bytesPerActivate::mean     71.699187                       # Bytes accessed per row activation
system.mem_ctrls.bytesPerActivate::gmean    67.584696                       # Bytes accessed per row activation
system.mem_ctrls.bytesPerActivate::stdev    55.205807                       # Bytes accessed per row activation
system.mem_ctrls.bytesPerActivate::0-127        29566     93.90%     93.90% # Bytes accessed per row activation
system.mem_ctrls.bytesPerActivate::128-255         1691      5.37%     99.27% # Bytes accessed per row activation
system.mem_ctrls.bytesPerActivate::256-383           74      0.24%     99.50% # Bytes accessed per row activation
system.mem_ctrls.bytesPerActivate::384-511           32      0.10%     99.60% # Bytes accessed per row activation
system.mem_ctrls.bytesPerActivate::512-639           23      0.07%     99.68% # Bytes accessed per row activation
system.mem_ctrls.bytesPerActivate::640-767           23      0.07%     99.75% # Bytes accessed per row activation
system.mem_ctrls.bytesPerActivate::768-895            9      0.03%     99.78% # Bytes accessed per row activation
system.mem_ctrls.bytesPerActivate::896-1023            8      0.03%     99.80% # Bytes accessed per row activation
system.mem_ctrls.bytesPerActivate::1024-1151           62      0.20%    100.00% # Bytes accessed per row activation
system.mem_ctrls.bytesPerActivate::total        31488                       # Bytes accessed per row activation
system.mem_ctrls.rdPerTurnAround::samples           14                       # Reads before turning the bus around for writes
system.mem_ctrls.rdPerTurnAround::mean    2495.214286                       # Reads before turning the bus around for writes
system.mem_ctrls.rdPerTurnAround::gmean    650.999587                       # Reads before turning the bus around for writes
system.mem_ctrls.rdPerTurnAround::stdev   7214.080198                       # Reads before turning the bus around for writes
system.mem_ctrls.rdPerTurnAround::0-1023           12     85.71%     85.71% # Reads before turning the bus around for writes
system.mem_ctrls.rdPerTurnAround::1024-2047            1      7.14%     92.86% # Reads before turning the bus around for writes
system.mem_ctrls.rdPerTurnAround::26624-27647            1      7.14%    100.00% # Reads before turning the bus around for writes
system.mem_ctrls.rdPerTurnAround::total            14                       # Reads before turning the bus around for writes
system.mem_ctrls.wrPerTurnAround::samples           14                       # Writes before turning the bus around for reads
system.mem_ctrls.wrPerTurnAround::mean      16.642857                       # Writes before turning the bus around for reads
system.mem_ctrls.wrPerTurnAround::gmean     16.611629                       # Writes before turning the bus around for reads
system.mem_ctrls.wrPerTurnAround::stdev      1.081818                       # Writes before turning the bus around for reads
system.mem_ctrls.wrPerTurnAround::16               10     71.43%     71.43% # Writes before turning the bus around for reads
system.mem_ctrls.wrPerTurnAround::18                3     21.43%     92.86% # Writes before turning the bus around for reads
system.mem_ctrls.wrPerTurnAround::19                1      7.14%    100.00% # Writes before turning the bus around for reads
system.mem_ctrls.wrPerTurnAround::total            14                       # Writes before turning the bus around for reads
system.mem_ctrls.masterReadBytes::.cpu.inst        51904                       # Per-master bytes read from memory
system.mem_ctrls.masterReadBytes::.cpu.data      2193600                       # Per-master bytes read from memory
system.mem_ctrls.masterWriteBytes::.writebacks        14912                       # Per-master bytes write to memory
system.mem_ctrls.masterReadRate::.cpu.inst 12308027.938730189577                       # Per-master bytes read from memory rate (Bytes/sec)
system.mem_ctrls.masterReadRate::.cpu.data 520169738.101081728935                       # Per-master bytes read from memory rate (Bytes/sec)
system.mem_ctrls.masterWriteRate::.writebacks 3536091.873889191542                       # Per-master bytes write to memory rate (Bytes/sec)
system.mem_ctrls.masterReadAccesses::.cpu.inst          811                       # Per-master read serviced memory accesses
system.mem_ctrls.masterReadAccesses::.cpu.data        34277                       # Per-master read serviced memory accesses
system.mem_ctrls.masterWriteAccesses::.writebacks          250                       # Per-master write serviced memory accesses
system.mem_ctrls.masterReadTotalLat::.cpu.inst     27771000                       # Per-master read total memory access latency
system.mem_ctrls.masterReadTotalLat::.cpu.data   1854777500                       # Per-master read total memory access latency
system.mem_ctrls.masterWriteTotalLat::.writebacks  13209964500                       # Per-master write total memory access latency
system.mem_ctrls.masterReadAvgLat::.cpu.inst     34242.91                       # Per-master read average memory access latency
system.mem_ctrls.masterReadAvgLat::.cpu.data     54111.43                       # Per-master read average memory access latency
system.mem_ctrls.masterWriteAvgLat::.writebacks  52839858.00                       # Per-master write average memory access latency
system.mem_ctrls.totQLat                   1224686000                       # Total ticks spent queuing
system.mem_ctrls.totMemAccLat              1882548500                       # Total ticks spent from burst creation until serviced by the DRAM
system.mem_ctrls.totBusLat                  175430000                       # Total ticks spent in databus transfers
system.mem_ctrls.avgQLat                     34905.26                       # Average queueing delay per DRAM burst
system.mem_ctrls.avgBusLat                    5000.00                       # Average bus latency per DRAM burst
system.mem_ctrls.avgMemAccLat                53655.26                       # Average memory access latency per DRAM burst
system.mem_ctrls.avgRdBW                       532.48                       # Average DRAM read bandwidth in MiByte/s
system.mem_ctrls.avgWrBW                         3.54                       # Average achieved write bandwidth in MiByte/s
system.mem_ctrls.avgRdBWSys                    532.51                       # Average system read bandwidth in MiByte/s
system.mem_ctrls.avgWrBWSys                      3.79                       # Average system write bandwidth in MiByte/s
system.mem_ctrls.peakBW                      12800.00                       # Theoretical peak bandwidth in MiByte/s
system.mem_ctrls.busUtil                         4.19                       # Data bus utilization in percentage
system.mem_ctrls.busUtilRead                     4.16                       # Data bus utilization in percentage for reads
system.mem_ctrls.busUtilWrite                    0.03                       # Data bus utilization in percentage for writes
system.mem_ctrls.avgRdQLen                       1.43                       # Average read queue length when enqueuing
system.mem_ctrls.avgWrQLen                      14.40                       # Average write queue length when enqueuing
system.mem_ctrls.readRowHits                     3628                       # Number of row buffer hits during reads
system.mem_ctrls.writeRowHits                     191                       # Number of row buffer hits during writes
system.mem_ctrls.readRowHitRate                 10.34                       # Row buffer hit rate for reads
system.mem_ctrls.writeRowHitRate                76.40                       # Row buffer hit rate for writes
system.mem_ctrls.avgGap                     119332.53                       # Average gap between requests
system.mem_ctrls.pageHitRate                    10.81                       # Row buffer hit rate, read and write combined
system.mem_ctrls_0.actEnergy                112876260                       # Energy for activate commands per rank (pJ)
system.mem_ctrls_0.preEnergy                 59964795                       # Energy for precharge commands per rank (pJ)
system.mem_ctrls_0.readEnergy               125599740                       # Energy for read commands per rank (pJ)
system.mem_ctrls_0.writeEnergy                1137960                       # Energy for write commands per rank (pJ)
system.mem_ctrls_0.refreshEnergy         118010880.000000                       # Energy for refresh commands per rank (pJ)
system.mem_ctrls_0.actBackEnergy            323306850                       # Energy for active background per rank (pJ)
system.mem_ctrls_0.preBackEnergy              2630880                       # Energy for precharge background per rank (pJ)
system.mem_ctrls_0.actPowerDownEnergy       350120220                       # Energy for active power-down per rank (pJ)
system.mem_ctrls_0.prePowerDownEnergy         6460320                       # Energy for precharge power-down per rank (pJ)
system.mem_ctrls_0.selfRefreshEnergy        652535340                       # Energy for self refresh per rank (pJ)
system.mem_ctrls_0.totalEnergy             1752643245                       # Total energy per rank (pJ)
system.mem_ctrls_0.averagePower            415.605387                       # Core power per rank (mW)
system.mem_ctrls_0.totalIdleTime           3501234500                       # Total Idle time Per DRAM Rank
system.mem_ctrls_0.memoryStateTime::IDLE      1274250                       # Time in different power states
system.mem_ctrls_0.memoryStateTime::REF      49920000                       # Time in different power states
system.mem_ctrls_0.memoryStateTime::SREF   2716596000                       # Time in different power states
system.mem_ctrls_0.memoryStateTime::PRE_PDN     16815250                       # Time in different power states
system.mem_ctrls_0.memoryStateTime::ACT     664592000                       # Time in different power states
system.mem_ctrls_0.memoryStateTime::ACT_PDN    767887500                       # Time in different power states
system.mem_ctrls_1.actEnergy                112033740                       # Energy for activate commands per rank (pJ)
system.mem_ctrls_1.preEnergy                 59532165                       # Energy for precharge commands per rank (pJ)
system.mem_ctrls_1.readEnergy               124914300                       # Energy for read commands per rank (pJ)
system.mem_ctrls_1.writeEnergy                  78300                       # Energy for write commands per rank (pJ)
system.mem_ctrls_1.refreshEnergy         118010880.000000                       # Energy for refresh commands per rank (pJ)
system.mem_ctrls_1.actBackEnergy            321605970                       # Energy for active background per rank (pJ)
system.mem_ctrls_1.preBackEnergy              3978240                       # Energy for precharge background per rank (pJ)
system.mem_ctrls_1.actPowerDownEnergy       346228260                       # Energy for active power-down per rank (pJ)
system.mem_ctrls_1.prePowerDownEnergy        10115520                       # Energy for precharge power-down per rank (pJ)
system.mem_ctrls_1.selfRefreshEnergy        652352340                       # Energy for self refresh per rank (pJ)
system.mem_ctrls_1.totalEnergy             1748849715                       # Total energy per rank (pJ)
system.mem_ctrls_1.averagePower            414.705825                       # Core power per rank (mW)
system.mem_ctrls_1.totalIdleTime           3501201500                       # Total Idle time Per DRAM Rank
system.mem_ctrls_1.memoryStateTime::IDLE      4393500                       # Time in different power states
system.mem_ctrls_1.memoryStateTime::REF      49920000                       # Time in different power states
system.mem_ctrls_1.memoryStateTime::SREF   2715833000                       # Time in different power states
system.mem_ctrls_1.memoryStateTime::PRE_PDN     26332250                       # Time in different power states
system.mem_ctrls_1.memoryStateTime::ACT     661282500                       # Time in different power states
system.mem_ctrls_1.memoryStateTime::ACT_PDN    759323750                       # Time in different power states
system.pwrStateResidencyTicks::UNDEFINED   4217085000                       # Cumulative time (in ticks) in various power states
system.cpu.branchPred.lookups                  530164                       # Number of BP lookups
system.cpu.branchPred.condPredicted            530164                       # Number of conditional branches predicted
system.cpu.branchPred.condIncorrect              2648                       # Number of conditional branches incorrect
system.cpu.branchPred.BTBLookups               527259                       # Number of BTB lookups
system.cpu.branchPred.BTBHits                       0                       # Number of BTB hits
system.cpu.branchPred.BTBCorrect                    0                       # Number of correct BTB predictions (this stat may not work properly.
system.cpu.branchPred.BTBHitPct              0.000000                       # BTB Hit Percentage
system.cpu.branchPred.usedRAS                    1390                       # Number of times the RAS was used to get a target.
system.cpu.branchPred.RASInCorrect                334                       # Number of incorrect RAS predictions.
system.cpu.branchPred.indirectLookups          527259                       # Number of indirect predictor lookups.
system.cpu.branchPred.indirectHits             508037                       # Number of indirect target hits.
system.cpu.branchPred.indirectMisses            19222                       # Number of indirect misses.
system.cpu.branchPredindirectMispredicted         1745                       # Number of mispredicted indirect branches.
system.cpu_voltage_domain.voltage                   1                       # Voltage in Volts
system.cpu_clk_domain.clock                      1000                       # Clock period in ticks
system.cpu.dtb.walker.pwrStateResidencyTicks::UNDEFINED   4217085000                       # Cumulative time (in ticks) in various power states
system.cpu.dtb.rdAccesses                     1951594                       # TLB accesses on read requests
system.cpu.dtb.wrAccesses                       13277                       # TLB accesses on write requests
system.cpu.dtb.rdMisses                        439140                       # TLB misses on read requests
system.cpu.dtb.wrMisses                            78                       # TLB misses on write requests
system.cpu.apic_clk_domain.clock                16000                       # Clock period in ticks
system.cpu.interrupts.pwrStateResidencyTicks::UNDEFINED   4217085000                       # Cumulative time (in ticks) in various power states
system.cpu.itb.walker.pwrStateResidencyTicks::UNDEFINED   4217085000                       # Cumulative time (in ticks) in various power states
system.cpu.itb.rdAccesses                           0                       # TLB accesses on read requests
system.cpu.itb.wrAccesses                       17089                       # TLB accesses on write requests
system.cpu.itb.rdMisses                             0                       # TLB misses on read requests
system.cpu.itb.wrMisses                           120                       # TLB misses on write requests
system.cpu.workload.numSyscalls                    27                       # Number of system calls
system.cpu.pwrStateResidencyTicks::ON      4217085000                       # Cumulative time (in ticks) in various power states
system.cpu.numCycles                          4217086                       # number of cpu cycles simulated
system.cpu.numWorkItemsStarted                      0                       # number of work items this cpu started
system.cpu.numWorkItemsCompleted                    0                       # number of work items this cpu completed
system.cpu.fetch.icacheStallCycles              37633                       # Number of cycles fetch is stalled on an Icache miss
system.cpu.fetch.Insts                        5655441                       # Number of instructions fetch has processed
system.cpu.fetch.Branches                      530164                       # Number of branches that fetch encountered
system.cpu.fetch.predictedBranches             509427                       # Number of branches that fetch has predicted taken
system.cpu.fetch.Cycles                       4140487                       # Number of cycles fetch has run and was not squashing or blocked
system.cpu.fetch.SquashCycles                    5400                       # Number of cycles fetch has spent squashing
system.cpu.fetch.TlbCycles                        111                       # Number of cycles fetch has spent waiting for tlb
system.cpu.fetch.MiscStallCycles                   22                       # Number of cycles fetch has spent waiting on interrupts, or bad addresses, or out of MSHRs
system.cpu.fetch.PendingTrapStallCycles           330                       # Number of stall cycles due to pending traps
system.cpu.fetch.PendingQuiesceStallCycles           14                       # Number of stall cycles due to pending quiesce instructions
system.cpu.fetch.IcacheWaitRetryStallCycles           15                       # Number of stall cycles due to full MSHR
system.cpu.fetch.CacheLines                     17042                       # Number of cache lines fetched
system.cpu.fetch.IcacheSquashes                  1049                       # Number of outstanding Icache misses that were squashed
system.cpu.fetch.rateDist::samples            4181312                       # Number of instructions fetched each cycle (Total)
system.cpu.fetch.rateDist::mean              2.102039                       # Number of instructions fetched each cycle (Total)
system.cpu.fetch.rateDist::stdev             3.223891                       # Number of instructions fetched each cycle (Total)
system.cpu.fetch.rateDist::underflows               0      0.00%      0.00% # Number of instructions fetched each cycle (Total)
system.cpu.fetch.rateDist::0                  2636691     63.06%     63.06% # Number of instructions fetched each cycle (Total)
system.cpu.fetch.rateDist::1                   248720      5.95%     69.01% # Number of instructions fetched each cycle (Total)
system.cpu.fetch.rateDist::2                    89710      2.15%     71.15% # Number of instructions fetched each cycle (Total)
system.cpu.fetch.rateDist::3                    94550      2.26%     73.41% # Number of instructions fetched each cycle (Total)
system.cpu.fetch.rateDist::4                    76753      1.84%     75.25% # Number of instructions fetched each cycle (Total)
system.cpu.fetch.rateDist::5                    75468      1.80%     77.05% # Number of instructions fetched each cycle (Total)
system.cpu.fetch.rateDist::6                    95464      2.28%     79.34% # Number of instructions fetched each cycle (Total)
system.cpu.fetch.rateDist::7                    91292      2.18%     81.52% # Number of instructions fetched each cycle (Total)
system.cpu.fetch.rateDist::8                   772664     18.48%    100.00% # Number of instructions fetched each cycle (Total)
system.cpu.fetch.rateDist::overflows                0      0.00%    100.00% # Number of instructions fetched each cycle (Total)
system.cpu.fetch.rateDist::min_value                0                       # Number of instructions fetched each cycle (Total)
system.cpu.fetch.rateDist::max_value                8                       # Number of instructions fetched each cycle (Total)
system.cpu.fetch.rateDist::total              4181312                       # Number of instructions fetched each cycle (Total)
system.cpu.fetch.branchRate                  0.125718                       # Number of branch fetches per cycle
system.cpu.fetch.rate                        1.341078                       # Number of inst fetches per cycle
system.cpu.decode.IdleCycles                   362636                       # Number of cycles decode is idle
system.cpu.decode.BlockedCycles               2715237                       # Number of cycles decode is blocked
system.cpu.decode.RunCycles                    357340                       # Number of cycles decode is running
system.cpu.decode.UnblockCycles                743399                       # Number of cycles decode is unblocking
system.cpu.decode.SquashCycles                   2700                       # Number of cycles decode is squashing
system.cpu.decode.DecodedInsts                8766436                       # Number of instructions handled by decode
system.cpu.rename.SquashCycles                   2700                       # Number of cycles rename is squashing
system.cpu.rename.IdleCycles                   515441                       # Number of cycles rename is idle
system.cpu.rename.BlockCycles                 1693446                       # Number of cycles rename is blocking
system.cpu.rename.serializeStallCycles           2032                       # count of cycles rename stalled for serializing inst
system.cpu.rename.RunCycles                    840758                       # Number of cycles rename is running
system.cpu.rename.UnblockCycles               1126935                       # Number of cycles rename is unblocking
system.cpu.rename.RenamedInsts                8755818                       # Number of instructions processed by rename
system.cpu.rename.ROBFullEvents                446420                       # Number of times rename has blocked due to ROB full
system.cpu.rename.IQFullEvents                 457829                       # Number of times rename has blocked due to IQ full
system.cpu.rename.LQFullEvents                    448                       # Number of times rename has blocked due to LQ full
system.cpu.rename.SQFullEvents                  16590                       # Number of times rename has blocked due to SQ full
system.cpu.rename.RenamedOperands            16307574                       # Number of destination operands rename has renamed
system.cpu.rename.RenameLookups              20152232                       # Number of register rename lookups that rename has made
system.cpu.rename.int_rename_lookups         13388574                       # Number of integer rename lookups
system.cpu.rename.fp_rename_lookups             11295                       # Number of floating rename lookups
system.cpu.rename.CommittedMaps              16177471                       # Number of HB maps that are committed
system.cpu.rename.UndoneMaps                   130103                       # Number of HB maps that are undone due to squashing
system.cpu.rename.serializingInsts                 89                       # count of serializing insts renamed
system.cpu.rename.tempSerializingInsts             61                       # count of temporary serializing insts renamed
system.cpu.rename.skidInsts                   3518299                       # count of insts added to the skid buffer
system.cpu.memDep0.insertedLoads               533996                       # Number of loads inserted to the mem dependence unit.
system.cpu.memDep0.insertedStores               15972                       # Number of stores inserted to the mem dependence unit.
system.cpu.memDep0.conflictingLoads              1018                       # Number of conflicting loads.
system.cpu.memDep0.conflictingStores              270                       # Number of conflicting stores.
system.cpu.iq.iqInstsAdded                    8736393                       # Number of instructions added to the IQ (excludes non-spec)
system.cpu.iq.iqNonSpecInstsAdded                  80                       # Number of non-speculative instructions added to the IQ
system.cpu.iq.iqInstsIssued                  10126873                       # Number of instructions issued
system.cpu.iq.iqSquashedInstsIssued               632                       # Number of squashed instructions issued
system.cpu.iq.iqSquashedInstsExamined           92373                       # Number of squashed instructions iterated over during squash; mainly for profiling
system.cpu.iq.iqSquashedOperandsExamined       133921                       # Number of squashed operands that are examined and possibly removed from graph
system.cpu.iq.iqSquashedNonSpecRemoved             53                       # Number of squashed non-spec instructions that were removed
system.cpu.iq.issued_per_cycle::samples       4181312                       # Number of insts issued each cycle
system.cpu.iq.issued_per_cycle::mean         2.421937                       # Number of insts issued each cycle
system.cpu.iq.issued_per_cycle::stdev        1.872537                       # Number of insts issued each cycle
system.cpu.iq.issued_per_cycle::underflows            0      0.00%      0.00% # Number of insts issued each cycle
system.cpu.iq.issued_per_cycle::0              842780     20.16%     20.16% # Number of insts issued each cycle
system.cpu.iq.issued_per_cycle::1              557683     13.34%     33.49% # Number of insts issued each cycle
system.cpu.iq.issued_per_cycle::2              856673     20.49%     53.98% # Number of insts issued each cycle
system.cpu.iq.issued_per_cycle::3              838737     20.06%     74.04% # Number of insts issued each cycle
system.cpu.iq.issued_per_cycle::4              535704     12.81%     86.85% # Number of insts issued each cycle
system.cpu.iq.issued_per_cycle::5              267166      6.39%     93.24% # Number of insts issued each cycle
system.cpu.iq.issued_per_cycle::6              156803      3.75%     96.99% # Number of insts issued each cycle
system.cpu.iq.issued_per_cycle::7               85959      2.06%     99.05% # Number of insts issued each cycle
system.cpu.iq.issued_per_cycle::8               39807      0.95%    100.00% # Number of insts issued each cycle
system.cpu.iq.issued_per_cycle::overflows            0      0.00%    100.00% # Number of insts issued each cycle
system.cpu.iq.issued_per_cycle::min_value            0                       # Number of insts issued each cycle
system.cpu.iq.issued_per_cycle::max_value            8                       # Number of insts issued each cycle
system.cpu.iq.issued_per_cycle::total         4181312                       # Number of insts issued each cycle
system.cpu.iq.fu_full::No_OpClass                   0      0.00%      0.00% # attempts to use FU when none available
system.cpu.iq.fu_full::IntAlu                    8233      5.47%      5.47% # attempts to use FU when none available
system.cpu.iq.fu_full::IntMult                      0      0.00%      5.47% # attempts to use FU when none available
system.cpu.iq.fu_full::IntDiv                       0      0.00%      5.47% # attempts to use FU when none available
system.cpu.iq.fu_full::FloatAdd                     0      0.00%      5.47% # attempts to use FU when none available
system.cpu.iq.fu_full::FloatCmp                     0      0.00%      5.47% # attempts to use FU when none available
system.cpu.iq.fu_full::FloatCvt                     0      0.00%      5.47% # attempts to use FU when none available
system.cpu.iq.fu_full::FloatMult                    0      0.00%      5.47% # attempts to use FU when none available
system.cpu.iq.fu_full::FloatMultAcc                 0      0.00%      5.47% # attempts to use FU when none available
system.cpu.iq.fu_full::FloatDiv                     0      0.00%      5.47% # attempts to use FU when none available
system.cpu.iq.fu_full::FloatMisc                    0      0.00%      5.47% # attempts to use FU when none available
system.cpu.iq.fu_full::FloatSqrt                    0      0.00%      5.47% # attempts to use FU when none available
system.cpu.iq.fu_full::SimdAdd                      0      0.00%      5.47% # attempts to use FU when none available
system.cpu.iq.fu_full::SimdAddAcc                   0      0.00%      5.47% # attempts to use FU when none available
system.cpu.iq.fu_full::SimdAlu                     12      0.01%      5.48% # attempts to use FU when none available
system.cpu.iq.fu_full::SimdCmp                      0      0.00%      5.48% # attempts to use FU when none available
system.cpu.iq.fu_full::SimdCvt                      3      0.00%      5.48% # attempts to use FU when none available
system.cpu.iq.fu_full::SimdMisc                     2      0.00%      5.48% # attempts to use FU when none available
system.cpu.iq.fu_full::SimdMult                     0      0.00%      5.48% # attempts to use FU when none available
system.cpu.iq.fu_full::SimdMultAcc                  0      0.00%      5.48% # attempts to use FU when none available
system.cpu.iq.fu_full::SimdShift                    1      0.00%      5.48% # attempts to use FU when none available
system.cpu.iq.fu_full::SimdShiftAcc                 0      0.00%      5.48% # attempts to use FU when none available
system.cpu.iq.fu_full::SimdSqrt                     0      0.00%      5.48% # attempts to use FU when none available
system.cpu.iq.fu_full::SimdFloatAdd                 0      0.00%      5.48% # attempts to use FU when none available
system.cpu.iq.fu_full::SimdFloatAlu                 0      0.00%      5.48% # attempts to use FU when none available
system.cpu.iq.fu_full::SimdFloatCmp                 0      0.00%      5.48% # attempts to use FU when none available
system.cpu.iq.fu_full::SimdFloatCvt                 0      0.00%      5.48% # attempts to use FU when none available
system.cpu.iq.fu_full::SimdFloatDiv                 0      0.00%      5.48% # attempts to use FU when none available
system.cpu.iq.fu_full::SimdFloatMisc                0      0.00%      5.48% # attempts to use FU when none available
system.cpu.iq.fu_full::SimdFloatMult                0      0.00%      5.48% # attempts to use FU when none available
system.cpu.iq.fu_full::SimdFloatMultAcc             0      0.00%      5.48% # attempts to use FU when none available
system.cpu.iq.fu_full::SimdFloatSqrt                0      0.00%      5.48% # attempts to use FU when none available
system.cpu.iq.fu_full::SimdAes                      0      0.00%      5.48% # attempts to use FU when none available
system.cpu.iq.fu_full::SimdAesMix                   0      0.00%      5.48% # attempts to use FU when none available
system.cpu.iq.fu_full::SimdSha1Hash                 0      0.00%      5.48% # attempts to use FU when none available
system.cpu.iq.fu_full::SimdSha1Hash2                0      0.00%      5.48% # attempts to use FU when none available
system.cpu.iq.fu_full::SimdSha256Hash               0      0.00%      5.48% # attempts to use FU when none available
system.cpu.iq.fu_full::SimdSha256Hash2              0      0.00%      5.48% # attempts to use FU when none available
system.cpu.iq.fu_full::SimdShaSigma2                0      0.00%      5.48% # attempts to use FU when none available
system.cpu.iq.fu_full::SimdShaSigma3                0      0.00%      5.48% # attempts to use FU when none available
system.cpu.iq.fu_full::MemRead                 141788     94.21%     99.70% # attempts to use FU when none available
system.cpu.iq.fu_full::MemWrite                   421      0.28%     99.98% # attempts to use FU when none available
system.cpu.iq.fu_full::FloatMemRead                11      0.01%     99.98% # attempts to use FU when none available
system.cpu.iq.fu_full::FloatMemWrite               25      0.02%    100.00% # attempts to use FU when none available
system.cpu.iq.fu_full::IprAccess                    0      0.00%    100.00% # attempts to use FU when none available
system.cpu.iq.fu_full::InstPrefetch                 0      0.00%    100.00% # attempts to use FU when none available
system.cpu.iq.FU_type_0::No_OpClass              2209      0.02%      0.02% # Type of FU issued
system.cpu.iq.FU_type_0::IntAlu               8153823     80.52%     80.54% # Type of FU issued
system.cpu.iq.FU_type_0::IntMult                   24      0.00%     80.54% # Type of FU issued
system.cpu.iq.FU_type_0::IntDiv                  1173      0.01%     80.55% # Type of FU issued
system.cpu.iq.FU_type_0::FloatAdd                 148      0.00%     80.55% # Type of FU issued
system.cpu.iq.FU_type_0::FloatCmp                   0      0.00%     80.55% # Type of FU issued
system.cpu.iq.FU_type_0::FloatCvt                   0      0.00%     80.55% # Type of FU issued
system.cpu.iq.FU_type_0::FloatMult                  0      0.00%     80.55% # Type of FU issued
system.cpu.iq.FU_type_0::FloatMultAcc               0      0.00%     80.55% # Type of FU issued
system.cpu.iq.FU_type_0::FloatDiv                   0      0.00%     80.55% # Type of FU issued
system.cpu.iq.FU_type_0::FloatMisc                  0      0.00%     80.55% # Type of FU issued
system.cpu.iq.FU_type_0::FloatSqrt                  0      0.00%     80.55% # Type of FU issued
system.cpu.iq.FU_type_0::SimdAdd                  376      0.00%     80.56% # Type of FU issued
system.cpu.iq.FU_type_0::SimdAddAcc                 0      0.00%     80.56% # Type of FU issued
system.cpu.iq.FU_type_0::SimdAlu                  782      0.01%     80.56% # Type of FU issued
system.cpu.iq.FU_type_0::SimdCmp                    6      0.00%     80.56% # Type of FU issued
system.cpu.iq.FU_type_0::SimdCvt                  929      0.01%     80.57% # Type of FU issued
system.cpu.iq.FU_type_0::SimdMisc                 590      0.01%     80.58% # Type of FU issued
system.cpu.iq.FU_type_0::SimdMult                   0      0.00%     80.58% # Type of FU issued
system.cpu.iq.FU_type_0::SimdMultAcc                0      0.00%     80.58% # Type of FU issued
system.cpu.iq.FU_type_0::SimdShift                196      0.00%     80.58% # Type of FU issued
system.cpu.iq.FU_type_0::SimdShiftAcc               0      0.00%     80.58% # Type of FU issued
system.cpu.iq.FU_type_0::SimdSqrt                   0      0.00%     80.58% # Type of FU issued
system.cpu.iq.FU_type_0::SimdFloatAdd               0      0.00%     80.58% # Type of FU issued
system.cpu.iq.FU_type_0::SimdFloatAlu               0      0.00%     80.58% # Type of FU issued
system.cpu.iq.FU_type_0::SimdFloatCmp               0      0.00%     80.58% # Type of FU issued
system.cpu.iq.FU_type_0::SimdFloatCvt               0      0.00%     80.58% # Type of FU issued
system.cpu.iq.FU_type_0::SimdFloatDiv               0      0.00%     80.58% # Type of FU issued
system.cpu.iq.FU_type_0::SimdFloatMisc              0      0.00%     80.58% # Type of FU issued
system.cpu.iq.FU_type_0::SimdFloatMult              0      0.00%     80.58% # Type of FU issued
system.cpu.iq.FU_type_0::SimdFloatMultAcc            0      0.00%     80.58% # Type of FU issued
system.cpu.iq.FU_type_0::SimdFloatSqrt              0      0.00%     80.58% # Type of FU issued
system.cpu.iq.FU_type_0::SimdAes                    0      0.00%     80.58% # Type of FU issued
system.cpu.iq.FU_type_0::SimdAesMix                 0      0.00%     80.58% # Type of FU issued
system.cpu.iq.FU_type_0::SimdSha1Hash               0      0.00%     80.58% # Type of FU issued
system.cpu.iq.FU_type_0::SimdSha1Hash2              0      0.00%     80.58% # Type of FU issued
system.cpu.iq.FU_type_0::SimdSha256Hash             0      0.00%     80.58% # Type of FU issued
system.cpu.iq.FU_type_0::SimdSha256Hash2            0      0.00%     80.58% # Type of FU issued
system.cpu.iq.FU_type_0::SimdShaSigma2              0      0.00%     80.58% # Type of FU issued
system.cpu.iq.FU_type_0::SimdShaSigma3              0      0.00%     80.58% # Type of FU issued
system.cpu.iq.FU_type_0::MemRead              1951454     19.27%     99.85% # Type of FU issued
system.cpu.iq.FU_type_0::MemWrite               13374      0.13%     99.98% # Type of FU issued
system.cpu.iq.FU_type_0::FloatMemRead            1393      0.01%    100.00% # Type of FU issued
system.cpu.iq.FU_type_0::FloatMemWrite            396      0.00%    100.00% # Type of FU issued
system.cpu.iq.FU_type_0::IprAccess                  0      0.00%    100.00% # Type of FU issued
system.cpu.iq.FU_type_0::InstPrefetch               0      0.00%    100.00% # Type of FU issued
system.cpu.iq.FU_type_0::total               10126873                       # Type of FU issued
system.cpu.iq.rate                           2.401391                       # Inst issue rate
system.cpu.iq.fu_busy_cnt                      150496                       # FU busy when requested
system.cpu.iq.fu_busy_rate                   0.014861                       # FU busy rate (busy events/executed inst)
system.cpu.iq.int_inst_queue_reads           24576313                       # Number of integer instruction queue reads
system.cpu.iq.int_inst_queue_writes           8819209                       # Number of integer instruction queue writes
system.cpu.iq.int_inst_queue_wakeup_accesses      8691098                       # Number of integer instruction queue wakeup accesses
system.cpu.iq.fp_inst_queue_reads                9873                       # Number of floating instruction queue reads
system.cpu.iq.fp_inst_queue_writes               9676                       # Number of floating instruction queue writes
system.cpu.iq.fp_inst_queue_wakeup_accesses         4416                       # Number of floating instruction queue wakeup accesses
system.cpu.iq.vec_inst_queue_reads                  0                       # Number of vector instruction queue reads
system.cpu.iq.vec_inst_queue_writes                 0                       # Number of vector instruction queue writes
system.cpu.iq.vec_inst_queue_wakeup_accesses            0                       # Number of vector instruction queue wakeup accesses
system.cpu.iq.int_alu_accesses               10270229                       # Number of integer alu accesses
system.cpu.iq.fp_alu_accesses                    4931                       # Number of floating point alu accesses
system.cpu.iq.vec_alu_accesses                      0                       # Number of vector alu accesses
system.cpu.iew.lsq.thread0.forwLoads             2392                       # Number of loads that had data forwarded from stores
system.cpu.iew.lsq.thread0.invAddrLoads             0                       # Number of loads ignored due to an invalid address
system.cpu.iew.lsq.thread0.squashedLoads        13724                       # Number of loads squashed
system.cpu.iew.lsq.thread0.ignoredResponses           14                       # Number of memory responses ignored because the instruction is squashed
system.cpu.iew.lsq.thread0.memOrderViolation           43                       # Number of memory ordering violations
system.cpu.iew.lsq.thread0.squashedStores         6217                       # Number of stores squashed
system.cpu.iew.lsq.thread0.invAddrSwpfs             0                       # Number of software prefetches ignored due to an invalid address
system.cpu.iew.lsq.thread0.blockedLoads             0                       # Number of blocked loads due to partial load-store forwarding
system.cpu.iew.lsq.thread0.rescheduledLoads            5                       # Number of loads that were rescheduled
system.cpu.iew.lsq.thread0.cacheBlocked       1422671                       # Number of times an access to memory failed due to the cache being blocked
system.cpu.iew.iewIdleCycles                        0                       # Number of cycles IEW is idle
system.cpu.iew.iewSquashCycles                   2700                       # Number of cycles IEW is squashing
system.cpu.iew.iewBlockCycles                   43342                       # Number of cycles IEW is blocking
system.cpu.iew.iewUnblockCycles                  3958                       # Number of cycles IEW is unblocking
system.cpu.iew.iewDispatchedInsts             8736473                       # Number of instructions dispatched to IQ
system.cpu.iew.iewDispSquashedInsts               148                       # Number of squashed instructions skipped by dispatch
system.cpu.iew.iewDispLoadInsts                533996                       # Number of dispatched load instructions
system.cpu.iew.iewDispStoreInsts                15972                       # Number of dispatched store instructions
system.cpu.iew.iewDispNonSpecInsts                 58                       # Number of dispatched non-speculative instructions
system.cpu.iew.iewIQFullEvents                    649                       # Number of times the IQ has become full, causing a stall
system.cpu.iew.iewLSQFullEvents                  3087                       # Number of times the LSQ has become full, causing a stall
system.cpu.iew.memOrderViolationEvents             43                       # Number of memory order violations
system.cpu.iew.predictedTakenIncorrect            687                       # Number of branches that were predicted taken incorrectly
system.cpu.iew.predictedNotTakenIncorrect         2682                       # Number of branches that were predicted not taken incorrectly
system.cpu.iew.branchMispredicts                 3369                       # Number of branch mispredicts detected at execute
system.cpu.iew.iewExecutedInsts              10121395                       # Number of executed instructions
system.cpu.iew.iewExecLoadInsts               1951571                       # Number of load instructions executed
system.cpu.iew.iewExecSquashedInsts              5478                       # Number of squashed instructions skipped in execute
system.cpu.iew.exec_swp                             0                       # number of swp insts executed
system.cpu.iew.exec_nop                             0                       # number of nop insts executed
system.cpu.iew.exec_refs                      1964846                       # number of memory reference insts executed
system.cpu.iew.exec_branches                   518376                       # Number of branches executed
system.cpu.iew.exec_stores                      13275                       # Number of stores executed
system.cpu.iew.exec_rate                     2.400092                       # Inst execution rate
system.cpu.iew.wb_sent                        8696877                       # cumulative count of insts sent to commit
system.cpu.iew.wb_count                       8695514                       # cumulative count of insts written-back
system.cpu.iew.wb_producers                   7646020                       # num instructions producing a value
system.cpu.iew.wb_consumers                  14109213                       # num instructions consuming a value
system.cpu.iew.wb_rate                       2.061972                       # insts written-back per cycle
system.cpu.iew.wb_fanout                     0.541917                       # average fanout of values written-back
system.cpu.commit.commitSquashedInsts           92481                       # The number of squashed insts skipped by commit
system.cpu.commit.commitNonSpecStalls              27                       # The number of times commit has been forced to stall to communicate backwards
system.cpu.commit.branchMispredicts              2668                       # The number of times a branch was mispredicted
system.cpu.commit.committed_per_cycle::samples      4167370                       # Number of insts commited each cycle
system.cpu.commit.committed_per_cycle::mean     2.074234                       # Number of insts commited each cycle
system.cpu.commit.committed_per_cycle::stdev     3.379283                       # Number of insts commited each cycle
system.cpu.commit.committed_per_cycle::underflows            0      0.00%      0.00% # Number of insts commited each cycle
system.cpu.commit.committed_per_cycle::0      2677274     64.24%     64.24% # Number of insts commited each cycle
system.cpu.commit.committed_per_cycle::1       438825     10.53%     74.77% # Number of insts commited each cycle
system.cpu.commit.committed_per_cycle::2        18589      0.45%     75.22% # Number of insts commited each cycle
system.cpu.commit.committed_per_cycle::3        10731      0.26%     75.48% # Number of insts commited each cycle
system.cpu.commit.committed_per_cycle::4         6397      0.15%     75.63% # Number of insts commited each cycle
system.cpu.commit.committed_per_cycle::5         3498      0.08%     75.71% # Number of insts commited each cycle
system.cpu.commit.committed_per_cycle::6         1288      0.03%     75.75% # Number of insts commited each cycle
system.cpu.commit.committed_per_cycle::7         1047      0.03%     75.77% # Number of insts commited each cycle
system.cpu.commit.committed_per_cycle::8      1009721     24.23%    100.00% # Number of insts commited each cycle
system.cpu.commit.committed_per_cycle::overflows            0      0.00%    100.00% # Number of insts commited each cycle
system.cpu.commit.committed_per_cycle::min_value            0                       # Number of insts commited each cycle
system.cpu.commit.committed_per_cycle::max_value            8                       # Number of insts commited each cycle
system.cpu.commit.committed_per_cycle::total      4167370                       # Number of insts commited each cycle
system.cpu.commit.committedInsts              5577901                       # Number of instructions committed
system.cpu.commit.committedOps                8644099                       # Number of ops (including micro ops) committed
system.cpu.commit.swp_count                         0                       # Number of s/w prefetches committed
system.cpu.commit.refs                         530027                       # Number of memory references committed
system.cpu.commit.loads                        520272                       # Number of loads committed
system.cpu.commit.membars                           0                       # Number of memory barriers committed
system.cpu.commit.branches                     515040                       # Number of branches committed
system.cpu.commit.vec_insts                         0                       # Number of committed Vector instructions.
system.cpu.commit.fp_insts                       3004                       # Number of committed floating point instructions.
system.cpu.commit.int_insts                   8641212                       # Number of committed integer instructions.
system.cpu.commit.function_calls                  588                       # Number of function calls committed.
system.cpu.commit.op_class_0::No_OpClass         1155      0.01%      0.01% # Class of committed instruction
system.cpu.commit.op_class_0::IntAlu          8109864     93.82%     93.83% # Class of committed instruction
system.cpu.commit.op_class_0::IntMult              11      0.00%     93.83% # Class of committed instruction
system.cpu.commit.op_class_0::IntDiv             1083      0.01%     93.85% # Class of committed instruction
system.cpu.commit.op_class_0::FloatAdd             18      0.00%     93.85% # Class of committed instruction
system.cpu.commit.op_class_0::FloatCmp              0      0.00%     93.85% # Class of committed instruction
system.cpu.commit.op_class_0::FloatCvt              0      0.00%     93.85% # Class of committed instruction
system.cpu.commit.op_class_0::FloatMult             0      0.00%     93.85% # Class of committed instruction
system.cpu.commit.op_class_0::FloatMultAcc            0      0.00%     93.85% # Class of committed instruction
system.cpu.commit.op_class_0::FloatDiv              0      0.00%     93.85% # Class of committed instruction
system.cpu.commit.op_class_0::FloatMisc             0      0.00%     93.85% # Class of committed instruction
system.cpu.commit.op_class_0::FloatSqrt             0      0.00%     93.85% # Class of committed instruction
system.cpu.commit.op_class_0::SimdAdd             284      0.00%     93.85% # Class of committed instruction
system.cpu.commit.op_class_0::SimdAddAcc            0      0.00%     93.85% # Class of committed instruction
system.cpu.commit.op_class_0::SimdAlu             403      0.00%     93.85% # Class of committed instruction
system.cpu.commit.op_class_0::SimdCmp               6      0.00%     93.85% # Class of committed instruction
system.cpu.commit.op_class_0::SimdCvt             664      0.01%     93.86% # Class of committed instruction
system.cpu.commit.op_class_0::SimdMisc            482      0.01%     93.87% # Class of committed instruction
system.cpu.commit.op_class_0::SimdMult              0      0.00%     93.87% # Class of committed instruction
system.cpu.commit.op_class_0::SimdMultAcc            0      0.00%     93.87% # Class of committed instruction
system.cpu.commit.op_class_0::SimdShift           102      0.00%     93.87% # Class of committed instruction
system.cpu.commit.op_class_0::SimdShiftAcc            0      0.00%     93.87% # Class of committed instruction
system.cpu.commit.op_class_0::SimdSqrt              0      0.00%     93.87% # Class of committed instruction
system.cpu.commit.op_class_0::SimdFloatAdd            0      0.00%     93.87% # Class of committed instruction
system.cpu.commit.op_class_0::SimdFloatAlu            0      0.00%     93.87% # Class of committed instruction
system.cpu.commit.op_class_0::SimdFloatCmp            0      0.00%     93.87% # Class of committed instruction
system.cpu.commit.op_class_0::SimdFloatCvt            0      0.00%     93.87% # Class of committed instruction
system.cpu.commit.op_class_0::SimdFloatDiv            0      0.00%     93.87% # Class of committed instruction
system.cpu.commit.op_class_0::SimdFloatMisc            0      0.00%     93.87% # Class of committed instruction
system.cpu.commit.op_class_0::SimdFloatMult            0      0.00%     93.87% # Class of committed instruction
system.cpu.commit.op_class_0::SimdFloatMultAcc            0      0.00%     93.87% # Class of committed instruction
system.cpu.commit.op_class_0::SimdFloatSqrt            0      0.00%     93.87% # Class of committed instruction
system.cpu.commit.op_class_0::SimdAes               0      0.00%     93.87% # Class of committed instruction
system.cpu.commit.op_class_0::SimdAesMix            0      0.00%     93.87% # Class of committed instruction
system.cpu.commit.op_class_0::SimdSha1Hash            0      0.00%     93.87% # Class of committed instruction
system.cpu.commit.op_class_0::SimdSha1Hash2            0      0.00%     93.87% # Class of committed instruction
system.cpu.commit.op_class_0::SimdSha256Hash            0      0.00%     93.87% # Class of committed instruction
system.cpu.commit.op_class_0::SimdSha256Hash2            0      0.00%     93.87% # Class of committed instruction
system.cpu.commit.op_class_0::SimdShaSigma2            0      0.00%     93.87% # Class of committed instruction
system.cpu.commit.op_class_0::SimdShaSigma3            0      0.00%     93.87% # Class of committed instruction
system.cpu.commit.op_class_0::MemRead          519610      6.01%     99.88% # Class of committed instruction
system.cpu.commit.op_class_0::MemWrite           9419      0.11%     99.99% # Class of committed instruction
system.cpu.commit.op_class_0::FloatMemRead          662      0.01%    100.00% # Class of committed instruction
system.cpu.commit.op_class_0::FloatMemWrite          336      0.00%    100.00% # Class of committed instruction
system.cpu.commit.op_class_0::IprAccess             0      0.00%    100.00% # Class of committed instruction
system.cpu.commit.op_class_0::InstPrefetch            0      0.00%    100.00% # Class of committed instruction
system.cpu.commit.op_class_0::total           8644099                       # Class of committed instruction
system.cpu.commit.bw_lim_events               1009721                       # number cycles where commit BW limit reached
system.cpu.rob.rob_reads                     11894229                       # The number of ROB reads
system.cpu.rob.rob_writes                    17487275                       # The number of ROB writes
system.cpu.timesIdled                             479                       # Number of times that the entire CPU went into an idle state and unscheduled itself
system.cpu.idleCycles                           35774                       # Total number of cycles that the CPU has spent unscheduled due to idling
system.cpu.committedInsts                     5577901                       # Number of Instructions Simulated
system.cpu.committedOps                       8644099                       # Number of Ops (including micro ops) Simulated
system.cpu.cpi                               0.756035                       # CPI: Cycles Per Instruction
system.cpu.cpi_total                         0.756035                       # CPI: Total CPI of All Threads
system.cpu.ipc                               1.322691                       # IPC: Instructions Per Cycle
system.cpu.ipc_total                         1.322691                       # IPC: Total IPC of All Threads
system.cpu.int_regfile_reads                 16131246                       # number of integer regfile reads
system.cpu.int_regfile_writes                 8162049                       # number of integer regfile writes
system.cpu.fp_regfile_reads                      6971                       # number of floating regfile reads
system.cpu.fp_regfile_writes                     3653                       # number of floating regfile writes
system.cpu.cc_regfile_reads                   5100748                       # number of cc regfile reads
system.cpu.cc_regfile_writes                  8068058                       # number of cc regfile writes
system.cpu.misc_regfile_reads                 3006140                       # number of misc regfile reads
system.cpu.dcache.tags.pwrStateResidencyTicks::UNDEFINED   4217085000                       # Cumulative time (in ticks) in various power states
system.cpu.dcache.tags.tagsinuse          1006.694005                       # Cycle average of tags in use
system.cpu.dcache.tags.total_refs              531819                       # Total number of references to valid blocks.
system.cpu.dcache.tags.sampled_refs            497556                       # Sample count of references to valid blocks.
system.cpu.dcache.tags.avg_refs              1.068863                       # Average number of references to valid blocks.
system.cpu.dcache.tags.warmup_cycle            232000                       # Cycle when the warmup percentage was hit.
system.cpu.dcache.tags.occ_blocks::.cpu.data  1006.694005                       # Average occupied blocks per requestor
system.cpu.dcache.tags.occ_percent::.cpu.data     0.983100                       # Average percentage of cache occupancy
system.cpu.dcache.tags.occ_percent::total     0.983100                       # Average percentage of cache occupancy
system.cpu.dcache.tags.occ_task_id_blocks::1024         1024                       # Occupied blocks per task id
system.cpu.dcache.tags.age_task_id_blocks_1024::0          357                       # Occupied blocks per task id
[...]
system.l2.ReadCleanReq_accesses::total            823                       # number of ReadCleanReq accesses(hits+misses)
system.l2.ReadSharedReq_accesses::.cpu.data       497130                       # number of ReadSharedReq accesses(hits+misses)
system.l2.ReadSharedReq_accesses::total        497130                       # number of ReadSharedReq accesses(hits+misses)
system.l2.demand_accesses::.cpu.inst              823                       # number of demand (read+write) accesses
system.l2.demand_accesses::.cpu.data           497556                       # number of demand (read+write) accesses
system.l2.demand_accesses::total               498379                       # number of demand (read+write) accesses
system.l2.overall_accesses::.cpu.inst             823                       # number of overall (read+write) accesses
system.l2.overall_accesses::.cpu.data          497556                       # number of overall (read+write) accesses
system.l2.overall_accesses::total              498379                       # number of overall (read+write) accesses
system.l2.ReadExReq_miss_rate::.cpu.data     0.969484                       # miss rate for ReadExReq accesses
system.l2.ReadExReq_miss_rate::total         0.969484                       # miss rate for ReadExReq accesses
system.l2.ReadCleanReq_miss_rate::.cpu.inst     0.985419                       # miss rate for ReadCleanReq accesses
system.l2.ReadCleanReq_miss_rate::total      0.985419                       # miss rate for ReadCleanReq accesses
system.l2.ReadSharedReq_miss_rate::.cpu.data     0.068119                       # miss rate for ReadSharedReq accesses
system.l2.ReadSharedReq_miss_rate::total     0.068119                       # miss rate for ReadSharedReq accesses
system.l2.demand_miss_rate::.cpu.inst        0.985419                       # miss rate for demand accesses
system.l2.demand_miss_rate::.cpu.data        0.068891                       # miss rate for demand accesses
system.l2.demand_miss_rate::total            0.070404                       # miss rate for demand accesses
system.l2.overall_miss_rate::.cpu.inst       0.985419                       # miss rate for overall accesses
system.l2.overall_miss_rate::.cpu.data       0.068891                       # miss rate for overall accesses
system.l2.overall_miss_rate::total           0.070404                       # miss rate for overall accesses
system.l2.ReadExReq_avg_miss_latency::.cpu.data 101544.794189                       # average ReadExReq miss latency
system.l2.ReadExReq_avg_miss_latency::total 101544.794189                       # average ReadExReq miss latency
system.l2.ReadCleanReq_avg_miss_latency::.cpu.inst 105558.569667                       # average ReadCleanReq miss latency
system.l2.ReadCleanReq_avg_miss_latency::total 105558.569667                       # average ReadCleanReq miss latency
system.l2.ReadSharedReq_avg_miss_latency::.cpu.data 126030.415781                       # average ReadSharedReq miss latency
system.l2.ReadSharedReq_avg_miss_latency::total 126030.415781                       # average ReadSharedReq miss latency
system.l2.demand_avg_miss_latency::.cpu.inst 105558.569667                       # average overall miss latency
system.l2.demand_avg_miss_latency::.cpu.data 125735.391079                       # average overall miss latency
system.l2.demand_avg_miss_latency::total 125269.037848                       # average overall miss latency
system.l2.overall_avg_miss_latency::.cpu.inst 105558.569667                       # average overall miss latency
system.l2.overall_avg_miss_latency::.cpu.data 125735.391079                       # average overall miss latency
system.l2.overall_avg_miss_latency::total 125269.037848                       # average overall miss latency
system.l2.blocked_cycles::no_mshrs                  0                       # number of cycles access was blocked
system.l2.blocked_cycles::no_targets                0                       # number of cycles access was blocked
system.l2.blocked::no_mshrs                         0                       # number of cycles access was blocked
system.l2.blocked::no_targets                       0                       # number of cycles access was blocked
system.l2.avg_blocked_cycles::no_mshrs            nan                       # average number of cycles each access was blocked
system.l2.avg_blocked_cycles::no_targets          nan                       # average number of cycles each access was blocked
system.l2.writebacks::.writebacks                 250                       # number of writebacks
system.l2.writebacks::total                       250                       # number of writebacks
system.l2.ReadExReq_mshr_misses::.cpu.data          413                       # number of ReadExReq MSHR misses
system.l2.ReadExReq_mshr_misses::total            413                       # number of ReadExReq MSHR misses
system.l2.ReadCleanReq_mshr_misses::.cpu.inst          811                       # number of ReadCleanReq MSHR misses
system.l2.ReadCleanReq_mshr_misses::total          811                       # number of ReadCleanReq MSHR misses
system.l2.ReadSharedReq_mshr_misses::.cpu.data        33864                       # number of ReadSharedReq MSHR misses
system.l2.ReadSharedReq_mshr_misses::total        33864                       # number of ReadSharedReq MSHR misses
system.l2.demand_mshr_misses::.cpu.inst           811                       # number of demand (read+write) MSHR misses
system.l2.demand_mshr_misses::.cpu.data         34277                       # number of demand (read+write) MSHR misses
system.l2.demand_mshr_misses::total             35088                       # number of demand (read+write) MSHR misses
system.l2.overall_mshr_misses::.cpu.inst          811                       # number of overall MSHR misses
system.l2.overall_mshr_misses::.cpu.data        34277                       # number of overall MSHR misses
system.l2.overall_mshr_misses::total            35088                       # number of overall MSHR misses
system.l2.ReadExReq_mshr_miss_latency::.cpu.data     33678000                       # number of ReadExReq MSHR miss cycles
system.l2.ReadExReq_mshr_miss_latency::total     33678000                       # number of ReadExReq MSHR miss cycles
system.l2.ReadCleanReq_mshr_miss_latency::.cpu.inst     69388000                       # number of ReadCleanReq MSHR miss cycles
system.l2.ReadCleanReq_mshr_miss_latency::total     69388000                       # number of ReadCleanReq MSHR miss cycles
system.l2.ReadSharedReq_mshr_miss_latency::.cpu.data   3590614000                       # number of ReadSharedReq MSHR miss cycles
system.l2.ReadSharedReq_mshr_miss_latency::total   3590614000                       # number of ReadSharedReq MSHR miss cycles
system.l2.demand_mshr_miss_latency::.cpu.inst     69388000                       # number of demand (read+write) MSHR miss cycles
system.l2.demand_mshr_miss_latency::.cpu.data   3624292000                       # number of demand (read+write) MSHR miss cycles
system.l2.demand_mshr_miss_latency::total   3693680000                       # number of demand (read+write) MSHR miss cycles
system.l2.overall_mshr_miss_latency::.cpu.inst     69388000                       # number of overall MSHR miss cycles
system.l2.overall_mshr_miss_latency::.cpu.data   3624292000                       # number of overall MSHR miss cycles
system.l2.overall_mshr_miss_latency::total   3693680000                       # number of overall MSHR miss cycles
system.l2.ReadExReq_mshr_miss_rate::.cpu.data     0.969484                       # mshr miss rate for ReadExReq accesses
system.l2.ReadExReq_mshr_miss_rate::total     0.969484                       # mshr miss rate for ReadExReq accesses
system.l2.ReadCleanReq_mshr_miss_rate::.cpu.inst     0.985419                       # mshr miss rate for ReadCleanReq accesses
system.l2.ReadCleanReq_mshr_miss_rate::total     0.985419                       # mshr miss rate for ReadCleanReq accesses
system.l2.ReadSharedReq_mshr_miss_rate::.cpu.data     0.068119                       # mshr miss rate for ReadSharedReq accesses
system.l2.ReadSharedReq_mshr_miss_rate::total     0.068119                       # mshr miss rate for ReadSharedReq accesses
system.l2.demand_mshr_miss_rate::.cpu.inst     0.985419                       # mshr miss rate for demand accesses
system.l2.demand_mshr_miss_rate::.cpu.data     0.068891                       # mshr miss rate for demand accesses
system.l2.demand_mshr_miss_rate::total       0.070404                       # mshr miss rate for demand accesses
system.l2.overall_mshr_miss_rate::.cpu.inst     0.985419                       # mshr miss rate for overall accesses
system.l2.overall_mshr_miss_rate::.cpu.data     0.068891                       # mshr miss rate for overall accesses
system.l2.overall_mshr_miss_rate::total      0.070404                       # mshr miss rate for overall accesses
system.l2.ReadExReq_avg_mshr_miss_latency::.cpu.data 81544.794189                       # average ReadExReq mshr miss latency
system.l2.ReadExReq_avg_mshr_miss_latency::total 81544.794189                       # average ReadExReq mshr miss latency
system.l2.ReadCleanReq_avg_mshr_miss_latency::.cpu.inst 85558.569667                       # average ReadCleanReq mshr miss latency
system.l2.ReadCleanReq_avg_mshr_miss_latency::total 85558.569667                       # average ReadCleanReq mshr miss latency
system.l2.ReadSharedReq_avg_mshr_miss_latency::.cpu.data 106030.415781                       # average ReadSharedReq mshr miss latency
system.l2.ReadSharedReq_avg_mshr_miss_latency::total 106030.415781                       # average ReadSharedReq mshr miss latency
system.l2.demand_avg_mshr_miss_latency::.cpu.inst 85558.569667                       # average overall mshr miss latency
system.l2.demand_avg_mshr_miss_latency::.cpu.data 105735.391079                       # average overall mshr miss latency
system.l2.demand_avg_mshr_miss_latency::total 105269.037848                       # average overall mshr miss latency
system.l2.overall_avg_mshr_miss_latency::.cpu.inst 85558.569667                       # average overall mshr miss latency
system.l2.overall_avg_mshr_miss_latency::.cpu.data 105735.391079                       # average overall mshr miss latency
system.l2.overall_avg_mshr_miss_latency::total 105269.037848                       # average overall mshr miss latency
system.l2.replacements                           2346                       # number of replacements
system.membus.snoop_filter.tot_requests         36218                       # Total number of requests made to the snoop filter.
system.membus.snoop_filter.hit_single_requests         1130                       # Number of requests hitting in the snoop filter with a single holder of the requested data.
system.membus.snoop_filter.hit_multi_requests            0                       # Number of requests hitting in the snoop filter with multiple (>1) holders of the requested data.
system.membus.snoop_filter.tot_snoops               0                       # Total number of snoops made to the snoop filter.
system.membus.snoop_filter.hit_single_snoops            0                       # Number of snoops hitting in the snoop filter with a single holder of the requested data.
system.membus.snoop_filter.hit_multi_snoops            0                       # Number of snoops hitting in the snoop filter with multiple (>1) holders of the requested data.
system.membus.pwrStateResidencyTicks::UNDEFINED   4217085000                       # Cumulative time (in ticks) in various power states
system.membus.trans_dist::ReadResp              34675                       # Transaction distribution
system.membus.trans_dist::WritebackDirty          250                       # Transaction distribution
system.membus.trans_dist::CleanEvict              880                       # Transaction distribution
system.membus.trans_dist::ReadExReq               413                       # Transaction distribution
system.membus.trans_dist::ReadExResp              413                       # Transaction distribution
system.membus.trans_dist::ReadSharedReq         34675                       # Transaction distribution
system.membus.pkt_count_system.l2.mem_side::system.mem_ctrls.port        71306                       # Packet count per connected master and slave (bytes)
system.membus.pkt_count_system.l2.mem_side::total        71306                       # Packet count per connected master and slave (bytes)
system.membus.pkt_count::total                  71306                       # Packet count per connected master and slave (bytes)
system.membus.pkt_size_system.l2.mem_side::system.mem_ctrls.port      2261632                       # Cumulative packet size per connected master and slave (bytes)
system.membus.pkt_size_system.l2.mem_side::total      2261632                       # Cumulative packet size per connected master and slave (bytes)
system.membus.pkt_size::total                 2261632                       # Cumulative packet size per connected master and slave (bytes)
system.membus.snoops                                0                       # Total snoops (count)
system.membus.snoopTraffic                          0                       # Total snoop traffic (bytes)
system.membus.snoop_fanout::samples             35088                       # Request fanout histogram
system.membus.snoop_fanout::mean                    0                       # Request fanout histogram
system.membus.snoop_fanout::stdev                   0                       # Request fanout histogram
system.membus.snoop_fanout::underflows              0      0.00%      0.00% # Request fanout histogram
system.membus.snoop_fanout::0                   35088    100.00%    100.00% # Request fanout histogram
system.membus.snoop_fanout::1                       0      0.00%    100.00% # Request fanout histogram
system.membus.snoop_fanout::overflows               0      0.00%    100.00% # Request fanout histogram
system.membus.snoop_fanout::min_value               0                       # Request fanout histogram
system.membus.snoop_fanout::max_value               0                       # Request fanout histogram
system.membus.snoop_fanout::total               35088                       # Request fanout histogram
system.membus.reqLayer2.occupancy            37218000                       # Layer occupancy (ticks)
system.membus.reqLayer2.utilization               0.9                       # Layer utilization (%)
system.membus.respLayer1.occupancy          196625500                       # Layer occupancy (ticks)
system.membus.respLayer1.utilization              4.7                       # Layer utilization (%)
system.tol2bus.snoop_filter.tot_requests       994999                       # Total number of requests made to the snoop filter.
system.tol2bus.snoop_filter.hit_single_requests       496622                       # Number of requests hitting in the snoop filter with a single holder of the requested data.
system.tol2bus.snoop_filter.hit_multi_requests            4                       # Number of requests hitting in the snoop filter with multiple (>1) holders of the requested data.
system.tol2bus.snoop_filter.tot_snoops           1215                       # Total number of snoops made to the snoop filter.
system.tol2bus.snoop_filter.hit_single_snoops         1213                       # Number of snoops hitting in the snoop filter with a single holder of the requested data.
system.tol2bus.snoop_filter.hit_multi_snoops            2                       # Number of snoops hitting in the snoop filter with multiple (>1) holders of the requested data.
system.tol2bus.pwrStateResidencyTicks::UNDEFINED   4217085000                       # Cumulative time (in ticks) in various power states
system.tol2bus.trans_dist::ReadResp            497953                       # Transaction distribution
system.tol2bus.trans_dist::WritebackDirty          568                       # Transaction distribution
system.tol2bus.trans_dist::WritebackClean           88                       # Transaction distribution
system.tol2bus.trans_dist::CleanEvict          498310                       # Transaction distribution
system.tol2bus.trans_dist::ReadExReq              426                       # Transaction distribution
system.tol2bus.trans_dist::ReadExResp             426                       # Transaction distribution
system.tol2bus.trans_dist::ReadCleanReq           823                       # Transaction distribution
system.tol2bus.trans_dist::ReadSharedReq       497130                       # Transaction distribution
system.tol2bus.pkt_count_system.cpu.icache.mem_side::system.l2.cpu_side         1734                       # Packet count per connected master and slave (bytes)
system.tol2bus.pkt_count_system.cpu.dcache.mem_side::system.l2.cpu_side      1491644                       # Packet count per connected master and slave (bytes)
system.tol2bus.pkt_count::total               1493378                       # Packet count per connected master and slave (bytes)
system.tol2bus.pkt_size_system.cpu.icache.mem_side::system.l2.cpu_side        58304                       # Cumulative packet size per connected master and slave (bytes)
system.tol2bus.pkt_size_system.cpu.dcache.mem_side::system.l2.cpu_side     31863936                       # Cumulative packet size per connected master and slave (bytes)
system.tol2bus.pkt_size::total               31922240                       # Cumulative packet size per connected master and slave (bytes)
system.tol2bus.snoops                            2346                       # Total snoops (count)
system.tol2bus.snoopTraffic                     16000                       # Total snoop traffic (bytes)
system.tol2bus.snoop_fanout::samples           500725                       # Request fanout histogram
system.tol2bus.snoop_fanout::mean            0.002442                       # Request fanout histogram
system.tol2bus.snoop_fanout::stdev           0.049442                       # Request fanout histogram
system.tol2bus.snoop_fanout::underflows             0      0.00%      0.00% # Request fanout histogram
system.tol2bus.snoop_fanout::0                 499504     99.76%     99.76% # Request fanout histogram
system.tol2bus.snoop_fanout::1                   1219      0.24%    100.00% # Request fanout histogram
system.tol2bus.snoop_fanout::2                      2      0.00%    100.00% # Request fanout histogram
system.tol2bus.snoop_fanout::3                      0      0.00%    100.00% # Request fanout histogram
system.tol2bus.snoop_fanout::4                      0      0.00%    100.00% # Request fanout histogram
system.tol2bus.snoop_fanout::overflows              0      0.00%    100.00% # Request fanout histogram
system.tol2bus.snoop_fanout::min_value              0                       # Request fanout histogram
system.tol2bus.snoop_fanout::max_value              2                       # Request fanout histogram
system.tol2bus.snoop_fanout::total             500725                       # Request fanout histogram
system.tol2bus.reqLayer0.occupancy          995811000                       # Layer occupancy (ticks)
system.tol2bus.reqLayer0.utilization             23.6                       # Layer utilization (%)
system.tol2bus.respLayer0.occupancy           2469000                       # Layer occupancy (ticks)
system.tol2bus.respLayer0.utilization             0.1                       # Layer utilization (%)
system.tol2bus.respLayer1.occupancy        1492668000                       # Layer occupancy (ticks)
system.tol2bus.respLayer1.utilization            35.4                       # Layer utilization (%)

---------- End Simulation Statistics   ----------
