
---------- Begin Simulation Statistics ----------
sim_seconds                                  0.007344                       # Number of seconds simulated
sim_ticks                                  7343676000                       # Number of ticks simulated
final_tick                                 7343676000                       # Number of ticks from beginning of simulation (restored from checkpoints and never reset)
sim_freq                                 1000000000000                       # Frequency of simulated ticks
host_inst_rate                                  95281                       # Simulator instruction rate (inst/s)
host_op_rate                                   146898                       # Simulator op (including micro ops) rate (op/s)
host_tick_rate                               48593502                       # Simulator tick rate (ticks/s)
host_mem_usage                                 669428                       # Number of bytes of host memory used
host_seconds                                   151.12                       # Real time elapsed on the host
sim_insts                                    14399366                       # Number of instructions simulated
sim_ops                                      22199922                       # Number of ops (including micro ops) simulated
system.voltage_domain.voltage                       1                       # Voltage in Volts
system.clk_domain.clock                          1000                       # Clock period in ticks
system.mem_ctrls.pwrStateResidencyTicks::UNDEFINED   7343676000                       # Cumulative time (in ticks) in various power states
system.mem_ctrls.bytes_read::.cpu.inst          51456                       # Number of bytes read from this memory
system.mem_ctrls.bytes_read::.cpu.data         292096                       # Number of bytes read from this memory
system.mem_ctrls.bytes_read::total             343552                       # Number of bytes read from this memory
system.mem_ctrls.bytes_inst_read::.cpu.inst        51456                       # Number of instructions bytes read from this memory
system.mem_ctrls.bytes_inst_read::total         51456                       # Number of instructions bytes read from this memory
system.mem_ctrls.num_reads::.cpu.inst             804                       # Number of read requests responded to by this memory
system.mem_ctrls.num_reads::.cpu.data            4564                       # Number of read requests responded to by this memory
system.mem_ctrls.num_reads::total                5368                       # Number of read requests responded to by this memory
system.mem_ctrls.bw_read::.cpu.inst           7006845                       # Total read bandwidth from this memory (bytes/s)
system.mem_ctrls.bw_read::.cpu.data          39775175                       # Total read bandwidth from this memory (bytes/s)
system.mem_ctrls.bw_read::total              46782020                       # Total read bandwidth from this memory (bytes/s)
system.mem_ctrls.bw_inst_read::.cpu.inst      7006845                       # Instruction read bandwidth from this memory (bytes/s)
system.mem_ctrls.bw_inst_read::total          7006845                       # Instruction read bandwidth from this memory (bytes/s)
system.mem_ctrls.bw_total::.cpu.inst          7006845                       # Total bandwidth to/from this memory (bytes/s)
system.mem_ctrls.bw_total::.cpu.data         39775175                       # Total bandwidth to/from this memory (bytes/s)
system.mem_ctrls.bw_total::total             46782020                       # Total bandwidth to/from this memory (bytes/s)
system.mem_ctrls.avgPriority_.cpu.inst::samples       804.00                       # Average QoS priority value for accepted requests
system.mem_ctrls.avgPriority_.cpu.data::samples      4564.00                       # Average QoS priority value for accepted requests
system.mem_ctrls.priorityMinLatency      0.000000018750                       # per QoS priority minimum request to response latency (s)
system.mem_ctrls.priorityMaxLatency      0.000001117250                       # per QoS priority maximum request to response latency (s)
system.mem_ctrls.numReadWriteTurnArounds            0                       # Number of turnarounds from READ to WRITE
system.mem_ctrls.numWriteReadTurnArounds            0                       # Number of turnarounds from WRITE to READ
system.mem_ctrls.numStayReadState               11046                       # Number of times bus staying in READ state
system.mem_ctrls.numStayWriteState                  0                       # Number of times bus staying in WRITE state
system.mem_ctrls.readReqs                        5368                       # Number of read requests accepted
system.mem_ctrls.writeReqs                          0                       # Number of write requests accepted
system.mem_ctrls.readBursts                      5368                       # Number of DRAM read bursts, including those serviced by the write queue
system.mem_ctrls.writeBursts                        0                       # Number of DRAM write bursts, including those merged in the write queue
system.mem_ctrls.bytesReadDRAM                 343552                       # Total number of bytes read from DRAM
system.mem_ctrls.bytesReadWrQ                       0                       # Total number of bytes read from write queue
system.mem_ctrls.bytesWritten                       0                       # Total number of bytes written to DRAM
system.mem_ctrls.bytesReadSys                  343552                       # Total read bytes from the system interface side
system.mem_ctrls.bytesWrittenSys                    0                       # Total written bytes from the system interface side
system.mem_ctrls.servicedByWrQ                      0                       # Number of DRAM read bursts serviced by the write queue
system.mem_ctrls.mergedWrBursts                     0                       # Number of DRAM write bursts merged with an existing one
system.mem_ctrls.neitherReadNorWriteReqs            0                       # Number of requests that are neither read nor write
system.mem_ctrls.perBankRdBursts::0               341                       # Per bank write bursts
system.mem_ctrls.perBankRdBursts::1               451                       # Per bank write bursts
system.mem_ctrls.perBankRdBursts::2               456                       # Per bank write bursts
system.mem_ctrls.perBankRdBursts::3               409                       # Per bank write bursts
system.mem_ctrls.perBankRdBursts::4               391                       # Per bank write bursts
system.mem_ctrls.perBankRdBursts::5               362                       # Per bank write bursts
system.mem_ctrls.perBankRdBursts::6               330                       # Per bank write bursts
system.mem_ctrls.perBankRdBursts::7               321                       # Per bank write bursts
system.mem_ctrls.perBankRdBursts::8               295                       # Per bank write bursts
system.mem_ctrls.perBankRdBursts::9               227                       # Per bank write bursts
system.mem_ctrls.perBankRdBursts::10              339                       # Per bank write bursts
system.mem_ctrls.perBankRdBursts::11              288                       # Per bank write bursts
system.mem_ctrls.perBankRdBursts::12              282                       # Per bank write bursts
system.mem_ctrls.perBankRdBursts::13              296                       # Per bank write bursts
system.mem_ctrls.perBankRdBursts::14              332                       # Per bank write bursts
system.mem_ctrls.perBankRdBursts::15              248                       # Per bank write bursts
system.mem_ctrls.perBankWrBursts::0                 0                       # Per bank write bursts
system.mem_ctrls.perBankWrBursts::1                 0                       # Per bank write bursts
system.mem_ctrls.perBankWrBursts::2                 0                       # Per bank write bursts
system.mem_ctrls.perBankWrBursts::3                 0                       # Per bank write bursts
system.mem_ctrls.perBankWrBursts::4                 0                       # Per bank write bursts
system.mem_ctrls.perBankWrBursts::5                 0                       # Per bank write bursts
system.mem_ctrls.perBankWrBursts::6                 0                       # Per bank write bursts
system.mem_ctrls.perBankWrBursts::7                 0                       # Per bank write bursts
system.mem_ctrls.perBankWrBursts::8                 0                       # Per bank write bursts
system.mem_ctrls.perBankWrBursts::9                 0                       # Per bank write bursts
system.mem_ctrls.perBankWrBursts::10                0                       # Per bank write bursts
system.mem_ctrls.perBankWrBursts::11                0                       # Per bank write bursts
system.mem_ctrls.perBankWrBursts::12                0                       # Per bank write bursts
system.mem_ctrls.perBankWrBursts::13                0                       # Per bank write bursts
system.mem_ctrls.perBankWrBursts::14                0                       # Per bank write bursts
system.mem_ctrls.perBankWrBursts::15                0                       # Per bank write bursts
system.mem_ctrls.numRdRetry                         0                       # Number of times read queue was full causing retry
system.mem_ctrls.numWrRetry                         0                       # Number of times write queue was full causing retry
system.mem_ctrls.totGap                    7343564000                       # Total gap between requests
system.mem_ctrls.readPktSize::0                     0                       # Read request sizes (log2)
system.mem_ctrls.readPktSize::1                     0                       # Read request sizes (log2)
system.mem_ctrls.readPktSize::2                     0                       # Read request sizes (log2)
system.mem_ctrls.readPktSize::3                     0                       # Read request sizes (log2)
system.mem_ctrls.readPktSize::4                     0                       # Read request sizes (log2)
system.mem_ctrls.readPktSize::5                     0                       # Read request sizes (log2)
system.mem_ctrls.readPktSize::6                  5368                       # Read request sizes (log2)
system.mem_ctrls.writePktSize::0                    0                       # Write request sizes (log2)
system.mem_ctrls.writePktSize::1                    0                       # Write request sizes (log2)
system.mem_ctrls.writePktSize::2                    0                       # Write request sizes (log2)
system.mem_ctrls.writePktSize::3                    0                       # Write request sizes (log2)
system.mem_ctrls.writePktSize::4                    0                       # Write request sizes (log2)
system.mem_ctrls.writePktSize::5                    0                       # Write request sizes (log2)
system.mem_ctrls.writePktSize::6                    0                       # Write request sizes (log2)
system.mem_ctrls.rdQLenPdf::0                    3882                       # What read queue length does an incoming req see
system.mem_ctrls.rdQLenPdf::1                    1174                       # What read queue length does an incoming req see
system.mem_ctrls.rdQLenPdf::2                     271                       # What read queue length does an incoming req see
system.mem_ctrls.rdQLenPdf::3                      39                       # What read queue length does an incoming req see
system.mem_ctrls.rdQLenPdf::4                       2                       # What read queue length does an incoming req see
system.mem_ctrls.rdQLenPdf::5                       0                       # What read queue length does an incoming req see
system.mem_ctrls.rdQLenPdf::6                       0                       # What read queue length does an incoming req see
system.mem_ctrls.rdQLenPdf::7                       0                       # What read queue length does an incoming req see
system.mem_ctrls.rdQLenPdf::8                       0                       # What read queue length does an incoming req see
system.mem_ctrls.rdQLenPdf::9                       0                       # What read queue length does an incoming req see
system.mem_ctrls.rdQLenPdf::10                      0                       # What read queue length does an incoming req see
system.mem_ctrls.rdQLenPdf::11                      0                       # What read queue length does an incoming req see
system.mem_ctrls.rdQLenPdf::12                      0                       # What read queue length does an incoming req see
system.mem_ctrls.rdQLenPdf::13                      0                       # What read queue length does an incoming req see
system.mem_ctrls.rdQLenPdf::14                      0                       # What read queue length does an incoming req see
system.mem_ctrls.rdQLenPdf::15                      0                       # What read queue length does an incoming req see
system.mem_ctrls.rdQLenPdf::16                      0                       # What read queue length does an incoming req see
system.mem_ctrls.rdQLenPdf::17                      0                       # What read queue length does an incoming req see
system.mem_ctrls.rdQLenPdf::18                      0                       # What read queue length does an incoming req see
system.mem_ctrls.rdQLenPdf::19                      0                       # What read queue length does an incoming req see
system.mem_ctrls.rdQLenPdf::20                      0                       # What read queue length does an incoming req see
system.mem_ctrls.rdQLenPdf::21                      0                       # What read queue length does an incoming req see
system.mem_ctrls.rdQLenPdf::22                      0                       # What read queue length does an incoming req see
system.mem_ctrls.rdQLenPdf::23                      0                       # What read queue length does an incoming req see
system.mem_ctrls.rdQLenPdf::24                      0                       # What read queue length does an incoming req see
system.mem_ctrls.rdQLenPdf::25                      0                       # What read queue length does an incoming req see
system.mem_ctrls.rdQLenPdf::26                      0                       # What read queue length does an incoming req see
system.mem_ctrls.rdQLenPdf::27                      0                       # What read queue length does an incoming req see
system.mem_ctrls.rdQLenPdf::28                      0                       # What read queue length does an incoming req see
system.mem_ctrls.rdQLenPdf::29                      0                       # What read queue length does an incoming req see
system.mem_ctrls.rdQLenPdf::30                      0                       # What read queue length does an incoming req see
system.mem_ctrls.rdQLenPdf::31                      0                       # What read queue length does an incoming req see
system.mem_ctrls.wrQLenPdf::0                       0                       # What write queue length does an incoming req see
system.mem_ctrls.wrQLenPdf::1                       0                       # What write queue length does an incoming req see
system.mem_ctrls.wrQLenPdf::2                       0                       # What write queue length does an incoming req see
system.mem_ctrls.wrQLenPdf::3                       0                       # What write queue length does an incoming req see
system.mem_ctrls.wrQLenPdf::4                       0                       # What write queue length does an incoming req see
system.mem_ctrls.wrQLenPdf::5                       0                       # What write queue length does an incoming req see
system.mem_ctrls.wrQLenPdf::6                       0                       # What write queue length does an incoming req see
system.mem_ctrls.wrQLenPdf::7                       0                       # What write queue length does an incoming req see
system.mem_ctrls.wrQLenPdf::8                       0                       # What write queue length does an incoming req see
system.mem_ctrls.wrQLenPdf::9                       0                       # What write queue length does an incoming req see
system.mem_ctrls.wrQLenPdf::10                      0                       # What write queue length does an incoming req see
system.mem_ctrls.wrQLenPdf::11                      0                       # What write queue length does an incoming req see
system.mem_ctrls.wrQLenPdf::12                      0                       # What write queue length does an incoming req see
system.mem_ctrls.wrQLenPdf::13                      0                       # What write queue length does an incoming req see
system.mem_ctrls.wrQLenPdf::14                      0                       # What write queue length does an incoming req see
system.mem_ctrls.wrQLenPdf::15                      0                       # What write queue length does an incoming req see
system.mem_ctrls.wrQLenPdf::16                      0                       # What write queue length does an incoming req see
system.mem_ctrls.wrQLenPdf::17                      0                       # What write queue length does an incoming req see
system.mem_ctrls.wrQLenPdf::18                      0                       # What write queue length does an incoming req see
system.mem_ctrls.wrQLenPdf::19                      0                       # What write queue length does an incoming req see
system.mem_ctrls.wrQLenPdf::20                      0                       # What write queue length does an incoming req see
system.mem_ctrls.wrQLenPdf::21                      0                       # What write queue length does an incoming req see
system.mem_ctrls.wrQLenPdf::22                      0                       # What write queue length does an incoming req see
system.mem_ctrls.wrQLenPdf::23                      0                       # What write queue length does an incoming req see
system.mem_ctrls.wrQLenPdf::24                      0                       # What write queue length does an incoming req see
system.mem_ctrls.wrQLenPdf::25                      0                       # What write queue length does an incoming req see
system.mem_ctrls.wrQLenPdf::26                      0                       # What write queue length does an incoming req see
system.mem_ctrls.wrQLenPdf::27                      0                       # What write queue length does an incoming req see
system.mem_ctrls.wrQLenPdf::28                      0                       # What write queue length does an incoming req see
system.mem_ctrls.wrQLenPdf::29                      0                       # What write queue length does an incoming req see
system.mem_ctrls.wrQLenPdf::30                      0                       # What write queue length does an incoming req see
system.mem_ctrls.wrQLenPdf::31                      0                       # What write queue length does an incoming req see
system.mem_ctrls.wrQLenPdf::32                      0                       # What write queue length does an incoming req see
system.mem_ctrls.wrQLenPdf::33                      0                       # What write queue length does an incoming req see
system.mem_ctrls.wrQLenPdf::34                      0                       # What write queue length does an incoming req see
system.mem_ctrls.wrQLenPdf::35                      0                       # What write queue length does an incoming req see
system.mem_ctrls.wrQLenPdf::36                      0                       # What write queue length does an incoming req see
system.mem_ctrls.wrQLenPdf::37                      0                       # What write queue length does an incoming req see
system.mem_ctrls.wrQLenPdf::38                      0                       # What write queue length does an incoming req see
system.mem_ctrls.wrQLenPdf::39                      0                       # What write queue length does an incoming req see
system.mem_ctrls.wrQLenPdf::40                      0                       # What write queue length does an incoming req see
system.mem_ctrls.wrQLenPdf::41                      0                       # What write queue length does an incoming req see
system.mem_ctrls.wrQLenPdf::42                      0                       # What write queue length does an incoming req see
system.mem_ctrls.wrQLenPdf::43                      0                       # What write queue length does an incoming req see
system.mem_ctrls.wrQLenPdf::44                      0                       # What write queue length does an incoming req see
system.mem_ctrls.wrQLenPdf::45                      0                       # What write queue length does an incoming req see
system.mem_ctrls.wrQLenPdf::46                      0                       # What write queue length does an incoming req see
system.mem_ctrls.wrQLenPdf::47                      0                       # What write queue length does an incoming req see
system.mem_ctrls.wrQLenPdf::48                      0                       # What write queue length does an incoming req see
system.mem_ctrls.wrQLenPdf::49                      0                       # What write queue length does an incoming req see
system.mem_ctrls.wrQLenPdf::50                      0                       # What write queue length does an incoming req see
system.mem_ctrls.wrQLenPdf::51                      0                       # What write queue length does an incoming req see
system.mem_ctrls.wrQLenPdf::52                      0                       # What write queue length does an incoming req see
system.mem_ctrls.wrQLenPdf::53                      0                       # What write queue length does an incoming req see
system.mem_ctrls.wrQLenPdf::54                      0                       # What write queue length does an incoming req see
system.mem_ctrls.wrQLenPdf::55                      0                       # What write queue length does an incoming req see
system.mem_ctrls.wrQLenPdf::56                      0                       # What write queue length does an incoming req see
system.mem_ctrls.wrQLenPdf::57                      0                       # What write queue length does an incoming req see
system.mem_ctrls.wrQLenPdf::58                      0                       # What write queue length does an incoming req see
system.mem_ctrls.wrQLenPdf::59                      0                       # What write queue length does an incoming req see
system.mem_ctrls.wrQLenPdf::60                      0                       # What write queue length does an incoming req see
system.mem_ctrls.wrQLenPdf::61                      0                       # What write queue length does an incoming req see
system.mem_ctrls.wrQLenPdf::62                      0                       # What write queue length does an incoming req see
system.mem_ctrls.wrQLenPdf::63                      0                       # What write queue length does an incoming req see
system.mem_ctrls.bytesPerActivate::samples          763                       # Bytes accessed per row activation
system.mem_ctrls.bytesPerActivate::mean    448.671035                       # Bytes accessed per row activation
system.mem_ctrls.bytesPerActivate::gmean   288.251373                       # Bytes accessed per row activation
system.mem_ctrls.bytesPerActivate::stdev   353.595362                       # Bytes accessed per row activation
system.mem_ctrls.bytesPerActivate::0-127          187     24.51%     24.51% # Bytes accessed per row activation
system.mem_ctrls.bytesPerActivate::128-255          108     14.15%     38.66% # Bytes accessed per row activation
system.mem_ctrls.bytesPerActivate::256-383           60      7.86%     46.53% # Bytes accessed per row activation
system.mem_ctrls.bytesPerActivate::384-511           57      7.47%     54.00% # Bytes accessed per row activation
system.mem_ctrls.bytesPerActivate::512-639          128     16.78%     70.77% # Bytes accessed per row activation
system.mem_ctrls.bytesPerActivate::640-767           38      4.98%     75.75% # Bytes accessed per row activation
system.mem_ctrls.bytesPerActivate::768-895           25      3.28%     79.03% # Bytes accessed per row activation
system.mem_ctrls.bytesPerActivate::896-1023           24      3.15%     82.18% # Bytes accessed per row activation
system.mem_ctrls.bytesPerActivate::1024-1151          136     17.82%    100.00% # Bytes accessed per row activation
system.mem_ctrls.bytesPerActivate::total          763                       # Bytes accessed per row activation
system.mem_ctrls.masterReadBytes::.cpu.inst        51456                       # Per-master bytes read from memory
system.mem_ctrls.masterReadBytes::.cpu.data       292096                       # Per-master bytes read from memory
system.mem_ctrls.masterReadRate::.cpu.inst 7006845.073230354115                       # Per-master bytes read from memory rate (Bytes/sec)
system.mem_ctrls.masterReadRate::.cpu.data 39775175.266446940601                       # Per-master bytes read from memory rate (Bytes/sec)
system.mem_ctrls.masterReadAccesses::.cpu.inst          804                       # Per-master read serviced memory accesses
system.mem_ctrls.masterReadAccesses::.cpu.data         4564                       # Per-master read serviced memory accesses
system.mem_ctrls.masterReadTotalLat::.cpu.inst     27290000                       # Per-master read total memory access latency
system.mem_ctrls.masterReadTotalLat::.cpu.data    256986500                       # Per-master read total memory access latency
system.mem_ctrls.masterReadAvgLat::.cpu.inst     33942.79                       # Per-master read average memory access latency
system.mem_ctrls.masterReadAvgLat::.cpu.data     56307.30                       # Per-master read average memory access latency
system.mem_ctrls.totQLat                    183626500                       # Total ticks spent queuing
system.mem_ctrls.totMemAccLat               284276500                       # Total ticks spent from burst creation until serviced by the DRAM
system.mem_ctrls.totBusLat                   26840000                       # Total ticks spent in databus transfers
system.mem_ctrls.avgQLat                     34207.62                       # Average queueing delay per DRAM burst
system.mem_ctrls.avgBusLat                    5000.00                       # Average bus latency per DRAM burst
system.mem_ctrls.avgMemAccLat                52957.62                       # Average memory access latency per DRAM burst
system.mem_ctrls.avgRdBW                        46.78                       # Average DRAM read bandwidth in MiByte/s
system.mem_ctrls.avgWrBW                         0.00                       # Average achieved write bandwidth in MiByte/s
system.mem_ctrls.avgRdBWSys                     46.78                       # Average system read bandwidth in MiByte/s
system.mem_ctrls.avgWrBWSys                      0.00                       # Average system write bandwidth in MiByte/s
system.mem_ctrls.peakBW                      12800.00                       # Theoretical peak bandwidth in MiByte/s
system.mem_ctrls.busUtil                         0.37                       # Data bus utilization in percentage
system.mem_ctrls.busUtilRead                     0.37                       # Data bus utilization in percentage for reads
system.mem_ctrls.busUtilWrite                    0.00                       # Data bus utilization in percentage for writes
system.mem_ctrls.avgRdQLen                       1.55                       # Average read queue length when enqueuing
system.mem_ctrls.avgWrQLen                       0.00                       # Average write queue length when enqueuing
system.mem_ctrls.readRowHits                     4595                       # Number of row buffer hits during reads
system.mem_ctrls.writeRowHits                       0                       # Number of row buffer hits during writes
system.mem_ctrls.readRowHitRate                 85.60                       # Row buffer hit rate for reads
system.mem_ctrls.writeRowHitRate                  nan                       # Row buffer hit rate for writes
system.mem_ctrls.avgGap                    1368026.08                       # Average gap between requests
system.mem_ctrls.pageHitRate                    85.60                       # Row buffer hit rate, read and write combined
system.mem_ctrls_0.actEnergy                  2877420                       # Energy for activate commands per rank (pJ)
system.mem_ctrls_0.preEnergy                  1518000                       # Energy for precharge commands per rank (pJ)
system.mem_ctrls_0.readEnergy                21855540                       # Energy for read commands per rank (pJ)
system.mem_ctrls_0.writeEnergy                      0                       # Energy for write commands per rank (pJ)
system.mem_ctrls_0.refreshEnergy         145055040.000000                       # Energy for refresh commands per rank (pJ)
system.mem_ctrls_0.actBackEnergy             62005170                       # Energy for active background per rank (pJ)
system.mem_ctrls_0.preBackEnergy             13483680                       # Energy for precharge background per rank (pJ)
system.mem_ctrls_0.actPowerDownEnergy       458099310                       # Energy for active power-down per rank (pJ)
system.mem_ctrls_0.prePowerDownEnergy       265708800                       # Energy for precharge power-down per rank (pJ)
system.mem_ctrls_0.selfRefreshEnergy       1364501640                       # Energy for self refresh per rank (pJ)
system.mem_ctrls_0.totalEnergy             2335104600                       # Total energy per rank (pJ)
system.mem_ctrls_0.averagePower            317.974894                       # Core power per rank (mW)
system.mem_ctrls_0.totalIdleTime           7172394250                       # Total Idle time Per DRAM Rank
system.mem_ctrls_0.memoryStateTime::IDLE     29366000                       # Time in different power states
system.mem_ctrls_0.memoryStateTime::REF      61360000                       # Time in different power states
system.mem_ctrls_0.memoryStateTime::SREF   5476032000                       # Time in different power states
system.mem_ctrls_0.memoryStateTime::PRE_PDN    691945750                       # Time in different power states
system.mem_ctrls_0.memoryStateTime::ACT      80347250                       # Time in different power states
system.mem_ctrls_0.memoryStateTime::ACT_PDN   1004625000                       # Time in different power states
system.mem_ctrls_1.actEnergy                  2641800                       # Energy for activate commands per rank (pJ)
system.mem_ctrls_1.preEnergy                  1377585                       # Energy for precharge commands per rank (pJ)
system.mem_ctrls_1.readEnergy                16471980                       # Energy for read commands per rank (pJ)
system.mem_ctrls_1.writeEnergy                      0                       # Energy for write commands per rank (pJ)
system.mem_ctrls_1.refreshEnergy         68225040.000000                       # Energy for refresh commands per rank (pJ)
system.mem_ctrls_1.actBackEnergy             42993960                       # Energy for active background per rank (pJ)
system.mem_ctrls_1.preBackEnergy              4519680                       # Energy for precharge background per rank (pJ)
system.mem_ctrls_1.actPowerDownEnergy       249917070                       # Energy for active power-down per rank (pJ)
system.mem_ctrls_1.prePowerDownEnergy        85116960                       # Energy for precharge power-down per rank (pJ)
system.mem_ctrls_1.selfRefreshEnergy       1568310660                       # Energy for self refresh per rank (pJ)
system.mem_ctrls_1.totalEnergy             2039574735                       # Total energy per rank (pJ)
system.mem_ctrls_1.averagePower            277.732124                       # Core power per rank (mW)
system.mem_ctrls_1.totalIdleTime           7237586750                       # Total Idle time Per DRAM Rank
system.mem_ctrls_1.memoryStateTime::IDLE      8675000                       # Time in different power states
system.mem_ctrls_1.memoryStateTime::REF      28860000                       # Time in different power states
system.mem_ctrls_1.memoryStateTime::SREF   6467902250                       # Time in different power states
system.mem_ctrls_1.memoryStateTime::PRE_PDN    221660500                       # Time in different power states
system.mem_ctrls_1.memoryStateTime::ACT      68490000                       # Time in different power states
system.mem_ctrls_1.memoryStateTime::ACT_PDN    548088250                       # Time in different power states
system.pwrStateResidencyTicks::UNDEFINED   7343676000                       # Cumulative time (in ticks) in various power states
system.cpu.branchPred.lookups                  326055                       # Number of BP lookups
system.cpu.branchPred.condPredicted            326055                       # Number of conditional branches predicted
system.cpu.branchPred.condIncorrect              3022                       # Number of conditional branches incorrect
system.cpu.branchPred.BTBLookups               290136                       # Number of BTB lookups
system.cpu.branchPred.BTBHits                       0                       # Number of BTB hits
system.cpu.branchPred.BTBCorrect                    0                       # Number of correct BTB predictions (this stat may not work properly.
system.cpu.branchPred.BTBHitPct              0.000000                       # BTB Hit Percentage
system.cpu.branchPred.usedRAS                    1375                       # Number of times the RAS was used to get a target.
system.cpu.branchPred.RASInCorrect                346                       # Number of incorrect RAS predictions.
system.cpu.branchPred.indirectLookups          290136                       # Number of indirect predictor lookups.
system.cpu.branchPred.indirectHits             270722                       # Number of indirect target hits.
system.cpu.branchPred.indirectMisses            19414                       # Number of indirect misses.
system.cpu.branchPredindirectMispredicted         1800                       # Number of mispredicted indirect branches.
system.cpu_voltage_domain.voltage                   1                       # Voltage in Volts
system.cpu_clk_domain.clock                      1000                       # Clock period in ticks
system.cpu.dtb.walker.pwrStateResidencyTicks::UNDEFINED   7343676000                       # Cumulative time (in ticks) in various power states
system.cpu.dtb.rdAccesses                     4907996                       # TLB accesses on read requests
system.cpu.dtb.wrAccesses                     2110557                       # TLB accesses on write requests
system.cpu.dtb.rdMisses                           545                       # TLB misses on read requests
system.cpu.dtb.wrMisses                            70                       # TLB misses on write requests
system.cpu.apic_clk_domain.clock                16000                       # Clock period in ticks
system.cpu.interrupts.pwrStateResidencyTicks::UNDEFINED   7343676000                       # Cumulative time (in ticks) in various power states
system.cpu.itb.walker.pwrStateResidencyTicks::UNDEFINED   7343676000                       # Cumulative time (in ticks) in various power states
system.cpu.itb.rdAccesses                           0                       # TLB accesses on read requests
system.cpu.itb.wrAccesses                     1625945                       # TLB accesses on write requests
system.cpu.itb.rdMisses                             0                       # TLB misses on read requests
system.cpu.itb.wrMisses                           113                       # TLB misses on write requests
system.cpu.workload.numSyscalls                    27                       # Number of system calls
system.cpu.pwrStateResidencyTicks::ON      7343676000                       # Cumulative time (in ticks) in various power states
system.cpu.numCycles                          7343677                       # number of cpu cycles simulated
system.cpu.numWorkItemsStarted                      0                       # number of work items this cpu started
system.cpu.numWorkItemsCompleted                    0                       # number of work items this cpu completed
system.cpu.fetch.icacheStallCycles            1647247                       # Number of cycles fetch is stalled on an Icache miss
system.cpu.fetch.Insts                       14500454                       # Number of instructions fetch has processed
system.cpu.fetch.Branches                      326055                       # Number of branches that fetch encountered
system.cpu.fetch.predictedBranches             272097                       # Number of branches that fetch has predicted taken
system.cpu.fetch.Cycles                       5657697                       # Number of cycles fetch has run and was not squashing or blocked
system.cpu.fetch.SquashCycles                    6434                       # Number of cycles fetch has spent squashing
system.cpu.fetch.TlbCycles                        106                       # Number of cycles fetch has spent waiting for tlb
system.cpu.fetch.MiscStallCycles                   21                       # Number of cycles fetch has spent waiting on interrupts, or bad addresses, or out of MSHRs
system.cpu.fetch.PendingTrapStallCycles           289                       # Number of stall cycles due to pending traps
system.cpu.fetch.PendingQuiesceStallCycles           14                       # Number of stall cycles due to pending quiesce instructions
system.cpu.fetch.IcacheWaitRetryStallCycles           31                       # Number of stall cycles due to full MSHR
system.cpu.fetch.CacheLines                   1625903                       # Number of cache lines fetched
system.cpu.fetch.IcacheSquashes                  1203                       # Number of outstanding Icache misses that were squashed
system.cpu.fetch.rateDist::samples            7308622                       # Number of instructions fetched each cycle (Total)
system.cpu.fetch.rateDist::mean              3.062053                       # Number of instructions fetched each cycle (Total)
system.cpu.fetch.rateDist::stdev             3.546884                       # Number of instructions fetched each cycle (Total)
system.cpu.fetch.rateDist::underflows               0      0.00%      0.00% # Number of instructions fetched each cycle (Total)
system.cpu.fetch.rateDist::0                  3729777     51.03%     51.03% # Number of instructions fetched each cycle (Total)
system.cpu.fetch.rateDist::1                   363644      4.98%     56.01% # Number of instructions fetched each cycle (Total)
system.cpu.fetch.rateDist::2                    81398      1.11%     57.12% # Number of instructions fetched each cycle (Total)
system.cpu.fetch.rateDist::3                   162340      2.22%     59.34% # Number of instructions fetched each cycle (Total)
system.cpu.fetch.rateDist::4                   241749      3.31%     62.65% # Number of instructions fetched each cycle (Total)
system.cpu.fetch.rateDist::5                   125362      1.72%     64.37% # Number of instructions fetched each cycle (Total)
system.cpu.fetch.rateDist::6                   290862      3.98%     68.35% # Number of instructions fetched each cycle (Total)
system.cpu.fetch.rateDist::7                   480972      6.58%     74.93% # Number of instructions fetched each cycle (Total)
system.cpu.fetch.rateDist::8                  1832518     25.07%    100.00% # Number of instructions fetched each cycle (Total)
system.cpu.fetch.rateDist::overflows                0      0.00%    100.00% # Number of instructions fetched each cycle (Total)
system.cpu.fetch.rateDist::min_value                0                       # Number of instructions fetched each cycle (Total)
system.cpu.fetch.rateDist::max_value                8                       # Number of instructions fetched each cycle (Total)
system.cpu.fetch.rateDist::total              7308622                       # Number of instructions fetched each cycle (Total)
system.cpu.fetch.branchRate                  0.044399                       # Number of branch fetches per cycle
system.cpu.fetch.rate                        1.974550                       # Number of inst fetches per cycle
system.cpu.decode.IdleCycles                   593432                       # Number of cycles decode is idle
system.cpu.decode.BlockedCycles               3774294                       # Number of cycles decode is blocked
system.cpu.decode.RunCycles                   1711755                       # Number of cycles decode is running
system.cpu.decode.UnblockCycles               1225924                       # Number of cycles decode is unblocking
system.cpu.decode.SquashCycles                   3217                       # Number of cycles decode is squashing
system.cpu.decode.DecodedInsts               22352086                       # Number of instructions handled by decode
system.cpu.rename.SquashCycles                   3217                       # Number of cycles rename is squashing
system.cpu.rename.IdleCycles                  1086222                       # Number of cycles rename is idle
system.cpu.rename.BlockCycles                  114040                       # Number of cycles rename is blocking
system.cpu.rename.serializeStallCycles           2054                       # count of cycles rename stalled for serializing inst
system.cpu.rename.RunCycles                   2444074                       # Number of cycles rename is running
system.cpu.rename.UnblockCycles               3659015                       # Number of cycles rename is unblocking
system.cpu.rename.RenamedInsts               22338249                       # Number of instructions processed by rename
system.cpu.rename.ROBFullEvents                  1043                       # Number of times rename has blocked due to ROB full
system.cpu.rename.IQFullEvents                 306576                       # Number of times rename has blocked due to IQ full
system.cpu.rename.LQFullEvents                3174667                       # Number of times rename has blocked due to LQ full
system.cpu.rename.SQFullEvents                  17396                       # Number of times rename has blocked due to SQ full
system.cpu.rename.RenamedOperands            21669733                       # Number of destination operands rename has renamed
system.cpu.rename.RenameLookups              48523569                       # Number of register rename lookups that rename has made
system.cpu.rename.int_rename_lookups         24905336                       # Number of integer rename lookups
system.cpu.rename.fp_rename_lookups          14701745                       # Number of floating rename lookups
system.cpu.rename.CommittedMaps              21512928                       # Number of HB maps that are committed
system.cpu.rename.UndoneMaps                   156805                       # Number of HB maps that are undone due to squashing
system.cpu.rename.serializingInsts                 87                       # count of serializing insts renamed
system.cpu.rename.tempSerializingInsts             59                       # count of temporary serializing insts renamed
system.cpu.rename.skidInsts                   6106449                       # count of insts added to the skid buffer
system.cpu.memDep0.insertedLoads              4526916                       # Number of loads inserted to the mem dependence unit.
system.cpu.memDep0.insertedStores             2114236                       # Number of stores inserted to the mem dependence unit.
system.cpu.memDep0.conflictingLoads           2098419                       # Number of conflicting loads.
system.cpu.memDep0.conflictingStores          2090648                       # Number of conflicting stores.
system.cpu.iq.iqInstsAdded                   22312675                       # Number of instructions added to the IQ (excludes non-spec)
system.cpu.iq.iqNonSpecInstsAdded                  77                       # Number of non-speculative instructions added to the IQ
system.cpu.iq.iqInstsIssued                  22399982                       # Number of instructions issued
system.cpu.iq.iqSquashedInstsIssued               848                       # Number of squashed instructions issued
system.cpu.iq.iqSquashedInstsExamined          112829                       # Number of squashed instructions iterated over during squash; mainly for profiling
system.cpu.iq.iqSquashedOperandsExamined       155930                       # Number of squashed operands that are examined and possibly removed from graph
system.cpu.iq.iqSquashedNonSpecRemoved             50                       # Number of squashed non-spec instructions that were removed
system.cpu.iq.issued_per_cycle::samples       7308622                       # Number of insts issued each cycle
system.cpu.iq.issued_per_cycle::mean         3.064871                       # Number of insts issued each cycle
system.cpu.iq.issued_per_cycle::stdev        2.091661                       # Number of insts issued each cycle
system.cpu.iq.issued_per_cycle::underflows            0      0.00%      0.00% # Number of insts issued each cycle
system.cpu.iq.issued_per_cycle::0              885898     12.12%     12.12% # Number of insts issued each cycle
system.cpu.iq.issued_per_cycle::1             1012377     13.85%     25.97% # Number of insts issued each cycle
system.cpu.iq.issued_per_cycle::2             1287689     17.62%     43.59% # Number of insts issued each cycle
system.cpu.iq.issued_per_cycle::3             1136709     15.55%     59.14% # Number of insts issued each cycle
system.cpu.iq.issued_per_cycle::4             1175117     16.08%     75.22% # Number of insts issued each cycle
system.cpu.iq.issued_per_cycle::5              920360     12.59%     87.82% # Number of insts issued each cycle
system.cpu.iq.issued_per_cycle::6              396583      5.43%     93.24% # Number of insts issued each cycle
system.cpu.iq.issued_per_cycle::7              230778      3.16%     96.40% # Number of insts issued each cycle
system.cpu.iq.issued_per_cycle::8              263111      3.60%    100.00% # Number of insts issued each cycle
system.cpu.iq.issued_per_cycle::overflows            0      0.00%    100.00% # Number of insts issued each cycle
system.cpu.iq.issued_per_cycle::min_value            0                       # Number of insts issued each cycle
system.cpu.iq.issued_per_cycle::max_value            8                       # Number of insts issued each cycle
system.cpu.iq.issued_per_cycle::total         7308622                       # Number of insts issued each cycle
system.cpu.iq.fu_full::No_OpClass                   0      0.00%      0.00% # attempts to use FU when none available
system.cpu.iq.fu_full::IntAlu                   43044     58.57%     58.57% # attempts to use FU when none available
system.cpu.iq.fu_full::IntMult                      0      0.00%     58.57% # attempts to use FU when none available
system.cpu.iq.fu_full::IntDiv                       0      0.00%     58.57% # attempts to use FU when none available
system.cpu.iq.fu_full::FloatAdd                  2033      2.77%     61.34% # attempts to use FU when none available
system.cpu.iq.fu_full::FloatCmp                     0      0.00%     61.34% # attempts to use FU when none available
system.cpu.iq.fu_full::FloatCvt                     0      0.00%     61.34% # attempts to use FU when none available
system.cpu.iq.fu_full::FloatMult                    0      0.00%     61.34% # attempts to use FU when none available
system.cpu.iq.fu_full::FloatMultAcc                 0      0.00%     61.34% # attempts to use FU when none available
system.cpu.iq.fu_full::FloatDiv                     0      0.00%     61.34% # attempts to use FU when none available
system.cpu.iq.fu_full::FloatMisc                    0      0.00%     61.34% # attempts to use FU when none available
system.cpu.iq.fu_full::FloatSqrt                    0      0.00%     61.34% # attempts to use FU when none available
system.cpu.iq.fu_full::SimdAdd                      1      0.00%     61.34% # attempts to use FU when none available
system.cpu.iq.fu_full::SimdAddAcc                   0      0.00%     61.34% # attempts to use FU when none available
system.cpu.iq.fu_full::SimdAlu                     14      0.02%     61.36% # attempts to use FU when none available
system.cpu.iq.fu_full::SimdCmp                      0      0.00%     61.36% # attempts to use FU when none available
system.cpu.iq.fu_full::SimdCvt                     14      0.02%     61.38% # attempts to use FU when none available
system.cpu.iq.fu_full::SimdMisc                     2      0.00%     61.38% # attempts to use FU when none available
system.cpu.iq.fu_full::SimdMult                     0      0.00%     61.38% # attempts to use FU when none available
system.cpu.iq.fu_full::SimdMultAcc                  0      0.00%     61.38% # attempts to use FU when none available
system.cpu.iq.fu_full::SimdShift                    0      0.00%     61.38% # attempts to use FU when none available
system.cpu.iq.fu_full::SimdShiftAcc                 0      0.00%     61.38% # attempts to use FU when none available
system.cpu.iq.fu_full::SimdSqrt                     0      0.00%     61.38% # attempts to use FU when none available
system.cpu.iq.fu_full::SimdFloatAdd                 1      0.00%     61.38% # attempts to use FU when none available
system.cpu.iq.fu_full::SimdFloatAlu                 0      0.00%     61.38% # attempts to use FU when none available
system.cpu.iq.fu_full::SimdFloatCmp                 0      0.00%     61.38% # attempts to use FU when none available
system.cpu.iq.fu_full::SimdFloatCvt                 0      0.00%     61.38% # attempts to use FU when none available
system.cpu.iq.fu_full::SimdFloatDiv                 0      0.00%     61.38% # attempts to use FU when none available
system.cpu.iq.fu_full::SimdFloatMisc                0      0.00%     61.38% # attempts to use FU when none available
system.cpu.iq.fu_full::SimdFloatMult            27193     37.00%     98.39% # attempts to use FU when none available
system.cpu.iq.fu_full::SimdFloatMultAcc             0      0.00%     98.39% # attempts to use FU when none available
system.cpu.iq.fu_full::SimdFloatSqrt                0      0.00%     98.39% # attempts to use FU when none available
system.cpu.iq.fu_full::SimdAes                      0      0.00%     98.39% # attempts to use FU when none available
system.cpu.iq.fu_full::SimdAesMix                   0      0.00%     98.39% # attempts to use FU when none available
system.cpu.iq.fu_full::SimdSha1Hash                 0      0.00%     98.39% # attempts to use FU when none available
system.cpu.iq.fu_full::SimdSha1Hash2                0      0.00%     98.39% # attempts to use FU when none available
system.cpu.iq.fu_full::SimdSha256Hash               0      0.00%     98.39% # attempts to use FU when none available
system.cpu.iq.fu_full::SimdSha256Hash2              0      0.00%     98.39% # attempts to use FU when none available
system.cpu.iq.fu_full::SimdShaSigma2                0      0.00%     98.39% # attempts to use FU when none available
system.cpu.iq.fu_full::SimdShaSigma3                0      0.00%     98.39% # attempts to use FU when none available
system.cpu.iq.fu_full::MemRead                    656      0.89%     99.28% # attempts to use FU when none available
system.cpu.iq.fu_full::MemWrite                   425      0.58%     99.86% # attempts to use FU when none available
system.cpu.iq.fu_full::FloatMemRead                75      0.10%     99.96% # attempts to use FU when none available
system.cpu.iq.fu_full::FloatMemWrite               30      0.04%    100.00% # attempts to use FU when none available
system.cpu.iq.fu_full::IprAccess                    0      0.00%    100.00% # attempts to use FU when none available
system.cpu.iq.fu_full::InstPrefetch                 0      0.00%    100.00% # attempts to use FU when none available
system.cpu.iq.FU_type_0::No_OpClass             35557      0.16%      0.16% # Type of FU issued
system.cpu.iq.FU_type_0::IntAlu               7210109     32.19%     32.35% # Type of FU issued
system.cpu.iq.FU_type_0::IntMult                   23      0.00%     32.35% # Type of FU issued
system.cpu.iq.FU_type_0::IntDiv                  1164      0.01%     32.35% # Type of FU issued
system.cpu.iq.FU_type_0::FloatAdd             4196860     18.74%     51.09% # Type of FU issued
system.cpu.iq.FU_type_0::FloatCmp                   0      0.00%     51.09% # Type of FU issued
system.cpu.iq.FU_type_0::FloatCvt                   0      0.00%     51.09% # Type of FU issued
system.cpu.iq.FU_type_0::FloatMult                  0      0.00%     51.09% # Type of FU issued
system.cpu.iq.FU_type_0::FloatMultAcc               0      0.00%     51.09% # Type of FU issued
system.cpu.iq.FU_type_0::FloatDiv                   0      0.00%     51.09% # Type of FU issued
system.cpu.iq.FU_type_0::FloatMisc                  0      0.00%     51.09% # Type of FU issued
system.cpu.iq.FU_type_0::FloatSqrt                  0      0.00%     51.09% # Type of FU issued
system.cpu.iq.FU_type_0::SimdAdd                  416      0.00%     51.09% # Type of FU issued
system.cpu.iq.FU_type_0::SimdAddAcc                 0      0.00%     51.09% # Type of FU issued
system.cpu.iq.FU_type_0::SimdAlu                  833      0.00%     51.09% # Type of FU issued
system.cpu.iq.FU_type_0::SimdCmp                    6      0.00%     51.09% # Type of FU issued
system.cpu.iq.FU_type_0::SimdCvt                 1020      0.00%     51.10% # Type of FU issued
system.cpu.iq.FU_type_0::SimdMisc                 618      0.00%     51.10% # Type of FU issued
system.cpu.iq.FU_type_0::SimdMult                   0      0.00%     51.10% # Type of FU issued
system.cpu.iq.FU_type_0::SimdMultAcc                0      0.00%     51.10% # Type of FU issued
system.cpu.iq.FU_type_0::SimdShift                216      0.00%     51.10% # Type of FU issued
system.cpu.iq.FU_type_0::SimdShiftAcc               0      0.00%     51.10% # Type of FU issued
system.cpu.iq.FU_type_0::SimdSqrt                   0      0.00%     51.10% # Type of FU issued
system.cpu.iq.FU_type_0::SimdFloatAdd         2097260      9.36%     60.46% # Type of FU issued
system.cpu.iq.FU_type_0::SimdFloatAlu               0      0.00%     60.46% # Type of FU issued
system.cpu.iq.FU_type_0::SimdFloatCmp               0      0.00%     60.46% # Type of FU issued
system.cpu.iq.FU_type_0::SimdFloatCvt               0      0.00%     60.46% # Type of FU issued
system.cpu.iq.FU_type_0::SimdFloatDiv               0      0.00%     60.46% # Type of FU issued
system.cpu.iq.FU_type_0::SimdFloatMisc              0      0.00%     60.46% # Type of FU issued
system.cpu.iq.FU_type_0::SimdFloatMult        2097363      9.36%     69.83% # Type of FU issued
system.cpu.iq.FU_type_0::SimdFloatMultAcc            0      0.00%     69.83% # Type of FU issued
system.cpu.iq.FU_type_0::SimdFloatSqrt              0      0.00%     69.83% # Type of FU issued
system.cpu.iq.FU_type_0::SimdAes                    0      0.00%     69.83% # Type of FU issued
system.cpu.iq.FU_type_0::SimdAesMix                 0      0.00%     69.83% # Type of FU issued
system.cpu.iq.FU_type_0::SimdSha1Hash               0      0.00%     69.83% # Type of FU issued
system.cpu.iq.FU_type_0::SimdSha1Hash2              0      0.00%     69.83% # Type of FU issued
system.cpu.iq.FU_type_0::SimdSha256Hash             0      0.00%     69.83% # Type of FU issued
system.cpu.iq.FU_type_0::SimdSha256Hash2            0      0.00%     69.83% # Type of FU issued
system.cpu.iq.FU_type_0::SimdShaSigma2              0      0.00%     69.83% # Type of FU issued
system.cpu.iq.FU_type_0::SimdShaSigma3              0      0.00%     69.83% # Type of FU issued
system.cpu.iq.FU_type_0::MemRead                62968      0.28%     70.11% # Type of FU issued
system.cpu.iq.FU_type_0::MemWrite               13438      0.06%     70.17% # Type of FU issued
system.cpu.iq.FU_type_0::FloatMemRead         4584461     20.47%     90.64% # Type of FU issued
system.cpu.iq.FU_type_0::FloatMemWrite        2097670      9.36%    100.00% # Type of FU issued
system.cpu.iq.FU_type_0::IprAccess                  0      0.00%    100.00% # Type of FU issued
system.cpu.iq.FU_type_0::InstPrefetch               0      0.00%    100.00% # Type of FU issued
system.cpu.iq.FU_type_0::total               22399982                       # Type of FU issued
system.cpu.iq.rate                           3.050241                       # Inst issue rate
system.cpu.iq.fu_busy_cnt                       73488                       # FU busy when requested
system.cpu.iq.fu_busy_rate                   0.003281                       # FU busy rate (busy events/executed inst)
system.cpu.iq.int_inst_queue_reads           21999871                       # Number of integer instruction queue reads
system.cpu.iq.int_inst_queue_writes           7458654                       # Number of integer instruction queue writes
system.cpu.iq.int_inst_queue_wakeup_accesses      7314068                       # Number of integer instruction queue wakeup accesses
system.cpu.iq.fp_inst_queue_reads            30183051                       # Number of floating instruction queue reads
system.cpu.iq.fp_inst_queue_writes           14967124                       # Number of floating instruction queue writes
system.cpu.iq.fp_inst_queue_wakeup_accesses     14949546                       # Number of floating instruction queue wakeup accesses
system.cpu.iq.vec_inst_queue_reads                  0                       # Number of vector instruction queue reads
system.cpu.iq.vec_inst_queue_writes                 0                       # Number of vector instruction queue writes
system.cpu.iq.vec_inst_queue_wakeup_accesses            0                       # Number of vector instruction queue wakeup accesses
system.cpu.iq.int_alu_accesses                7331766                       # Number of integer alu accesses
system.cpu.iq.fp_alu_accesses                15106147                       # Number of floating point alu accesses
system.cpu.iq.vec_alu_accesses                      0                       # Number of vector alu accesses
system.cpu.iew.lsq.thread0.forwLoads             2304                       # Number of loads that had data forwarded from stores
system.cpu.iew.lsq.thread0.invAddrLoads             0                       # Number of loads ignored due to an invalid address
system.cpu.iew.lsq.thread0.squashedLoads        16858                       # Number of loads squashed
system.cpu.iew.lsq.thread0.ignoredResponses           17                       # Number of memory responses ignored because the instruction is squashed
system.cpu.iew.lsq.thread0.memOrderViolation          204                       # Number of memory ordering violations
system.cpu.iew.lsq.thread0.squashedStores         7289                       # Number of stores squashed
system.cpu.iew.lsq.thread0.invAddrSwpfs             0                       # Number of software prefetches ignored due to an invalid address
system.cpu.iew.lsq.thread0.blockedLoads             0                       # Number of blocked loads due to partial load-store forwarding
system.cpu.iew.lsq.thread0.rescheduledLoads       124198                       # Number of loads that were rescheduled
system.cpu.iew.lsq.thread0.cacheBlocked          1599                       # Number of times an access to memory failed due to the cache being blocked
system.cpu.iew.iewIdleCycles                        0                       # Number of cycles IEW is idle
system.cpu.iew.iewSquashCycles                   3217                       # Number of cycles IEW is squashing
system.cpu.iew.iewBlockCycles                   50869                       # Number of cycles IEW is blocking
system.cpu.iew.iewUnblockCycles                 54740                       # Number of cycles IEW is unblocking
system.cpu.iew.iewDispatchedInsts            22312752                       # Number of instructions dispatched to IQ
system.cpu.iew.iewDispSquashedInsts                78                       # Number of squashed instructions skipped by dispatch
system.cpu.iew.iewDispLoadInsts               4526916                       # Number of dispatched load instructions
system.cpu.iew.iewDispStoreInsts              2114236                       # Number of dispatched store instructions
system.cpu.iew.iewDispNonSpecInsts                 58                       # Number of dispatched non-speculative instructions
system.cpu.iew.iewIQFullEvents                    735                       # Number of times the IQ has become full, causing a stall
system.cpu.iew.iewLSQFullEvents                 51919                       # Number of times the LSQ has become full, causing a stall
system.cpu.iew.memOrderViolationEvents            204                       # Number of memory order violations
system.cpu.iew.predictedTakenIncorrect            973                       # Number of branches that were predicted taken incorrectly
system.cpu.iew.predictedNotTakenIncorrect         2781                       # Number of branches that were predicted not taken incorrectly
system.cpu.iew.branchMispredicts                 3754                       # Number of branch mispredicts detected at execute
system.cpu.iew.iewExecutedInsts              22393164                       # Number of executed instructions
system.cpu.iew.iewExecLoadInsts               4645766                       # Number of load instructions executed
system.cpu.iew.iewExecSquashedInsts              6818                       # Number of squashed instructions skipped in execute
system.cpu.iew.exec_swp                             0                       # number of swp insts executed
system.cpu.iew.exec_nop                             0                       # number of nop insts executed
system.cpu.iew.exec_refs                      6756321                       # number of memory reference insts executed
system.cpu.iew.exec_branches                   313827                       # Number of branches executed
system.cpu.iew.exec_stores                    2110555                       # Number of stores executed
system.cpu.iew.exec_rate                     3.049312                       # Inst execution rate
system.cpu.iew.wb_sent                       22265144                       # cumulative count of insts sent to commit
system.cpu.iew.wb_count                      22263614                       # cumulative count of insts written-back
system.cpu.iew.wb_producers                  13746792                       # num instructions producing a value
system.cpu.iew.wb_consumers                  19650009                       # num instructions consuming a value
system.cpu.iew.wb_rate                       3.031671                       # insts written-back per cycle
system.cpu.iew.wb_fanout                     0.699582                       # average fanout of values written-back
system.cpu.commit.commitSquashedInsts          112951                       # The number of squashed insts skipped by commit
system.cpu.commit.commitNonSpecStalls              27                       # The number of times commit has been forced to stall to communicate backwards
system.cpu.commit.branchMispredicts              3039                       # The number of times a branch was mispredicted
system.cpu.commit.committed_per_cycle::samples      7291843                       # Number of insts commited each cycle
system.cpu.commit.committed_per_cycle::mean     3.044487                       # Number of insts commited each cycle
system.cpu.commit.committed_per_cycle::stdev     3.420653                       # Number of insts commited each cycle
system.cpu.commit.committed_per_cycle::underflows            0      0.00%      0.00% # Number of insts commited each cycle
system.cpu.commit.committed_per_cycle::0      2281591     31.29%     31.29% # Number of insts commited each cycle
system.cpu.commit.committed_per_cycle::1      2279307     31.26%     62.55% # Number of insts commited each cycle
system.cpu.commit.committed_per_cycle::2        20815      0.29%     62.83% # Number of insts commited each cycle
system.cpu.commit.committed_per_cycle::3        14579      0.20%     63.03% # Number of insts commited each cycle
system.cpu.commit.committed_per_cycle::4       278707      3.82%     66.86% # Number of insts commited each cycle
system.cpu.commit.committed_per_cycle::5        32814      0.45%     67.31% # Number of insts commited each cycle
system.cpu.commit.committed_per_cycle::6       147614      2.02%     69.33% # Number of insts commited each cycle
system.cpu.commit.committed_per_cycle::7       220662      3.03%     72.36% # Number of insts commited each cycle
system.cpu.commit.committed_per_cycle::8      2015754     27.64%    100.00% # Number of insts commited each cycle
system.cpu.commit.committed_per_cycle::overflows            0      0.00%    100.00% # Number of insts commited each cycle
system.cpu.commit.committed_per_cycle::min_value            0                       # Number of insts commited each cycle
system.cpu.commit.committed_per_cycle::max_value            8                       # Number of insts commited each cycle
system.cpu.commit.committed_per_cycle::total      7291843                       # Number of insts commited each cycle
system.cpu.commit.committedInsts             14399366                       # Number of instructions committed
system.cpu.commit.committedOps               22199922                       # Number of ops (including micro ops) committed
system.cpu.commit.swp_count                         0                       # Number of s/w prefetches committed
system.cpu.commit.refs                        6617005                       # Number of memory references committed
system.cpu.commit.loads                       4510058                       # Number of loads committed
system.cpu.commit.membars                           0                       # Number of memory barriers committed
system.cpu.commit.branches                     310201                       # Number of branches committed
system.cpu.commit.vec_insts                         0                       # Number of committed Vector instructions.
system.cpu.commit.fp_insts                   14945212                       # Number of committed floating point instructions.
system.cpu.commit.int_insts                  13775406                       # Number of committed integer instructions.
system.cpu.commit.function_calls                  587                       # Number of function calls committed.
system.cpu.commit.op_class_0::No_OpClass        34176      0.15%      0.15% # Class of committed instruction
system.cpu.commit.op_class_0::IntAlu          7157080     32.24%     32.39% # Class of committed instruction
system.cpu.commit.op_class_0::IntMult              11      0.00%     32.39% # Class of committed instruction
system.cpu.commit.op_class_0::IntDiv             1083      0.00%     32.40% # Class of committed instruction
system.cpu.commit.op_class_0::FloatAdd        4194322     18.89%     51.29% # Class of committed instruction
system.cpu.commit.op_class_0::FloatCmp              0      0.00%     51.29% # Class of committed instruction
system.cpu.commit.op_class_0::FloatCvt              0      0.00%     51.29% # Class of committed instruction
system.cpu.commit.op_class_0::FloatMult             0      0.00%     51.29% # Class of committed instruction
system.cpu.commit.op_class_0::FloatMultAcc            0      0.00%     51.29% # Class of committed instruction
system.cpu.commit.op_class_0::FloatDiv              0      0.00%     51.29% # Class of committed instruction
system.cpu.commit.op_class_0::FloatMisc             0      0.00%     51.29% # Class of committed instruction
system.cpu.commit.op_class_0::FloatSqrt             0      0.00%     51.29% # Class of committed instruction
system.cpu.commit.op_class_0::SimdAdd             284      0.00%     51.29% # Class of committed instruction
system.cpu.commit.op_class_0::SimdAddAcc            0      0.00%     51.29% # Class of committed instruction
system.cpu.commit.op_class_0::SimdAlu             403      0.00%     51.29% # Class of committed instruction
system.cpu.commit.op_class_0::SimdCmp               6      0.00%     51.29% # Class of committed instruction
system.cpu.commit.op_class_0::SimdCvt             664      0.00%     51.30% # Class of committed instruction
system.cpu.commit.op_class_0::SimdMisc            482      0.00%     51.30% # Class of committed instruction
system.cpu.commit.op_class_0::SimdMult              0      0.00%     51.30% # Class of committed instruction
system.cpu.commit.op_class_0::SimdMultAcc            0      0.00%     51.30% # Class of committed instruction
system.cpu.commit.op_class_0::SimdShift           102      0.00%     51.30% # Class of committed instruction
system.cpu.commit.op_class_0::SimdShiftAcc            0      0.00%     51.30% # Class of committed instruction
system.cpu.commit.op_class_0::SimdSqrt              0      0.00%     51.30% # Class of committed instruction
system.cpu.commit.op_class_0::SimdFloatAdd      2097152      9.45%     60.75% # Class of committed instruction
system.cpu.commit.op_class_0::SimdFloatAlu            0      0.00%     60.75% # Class of committed instruction
system.cpu.commit.op_class_0::SimdFloatCmp            0      0.00%     60.75% # Class of committed instruction
system.cpu.commit.op_class_0::SimdFloatCvt            0      0.00%     60.75% # Class of committed instruction
system.cpu.commit.op_class_0::SimdFloatDiv            0      0.00%     60.75% # Class of committed instruction
system.cpu.commit.op_class_0::SimdFloatMisc            0      0.00%     60.75% # Class of committed instruction
system.cpu.commit.op_class_0::SimdFloatMult      2097152      9.45%     70.19% # Class of committed instruction
system.cpu.commit.op_class_0::SimdFloatMultAcc            0      0.00%     70.19% # Class of committed instruction
system.cpu.commit.op_class_0::SimdFloatSqrt            0      0.00%     70.19% # Class of committed instruction
system.cpu.commit.op_class_0::SimdAes               0      0.00%     70.19% # Class of committed instruction
system.cpu.commit.op_class_0::SimdAesMix            0      0.00%     70.19% # Class of committed instruction
system.cpu.commit.op_class_0::SimdSha1Hash            0      0.00%     70.19% # Class of committed instruction
system.cpu.commit.op_class_0::SimdSha1Hash2            0      0.00%     70.19% # Class of committed instruction
system.cpu.commit.op_class_0::SimdSha256Hash            0      0.00%     70.19% # Class of committed instruction
system.cpu.commit.op_class_0::SimdSha256Hash2            0      0.00%     70.19% # Class of committed instruction
system.cpu.commit.op_class_0::SimdShaSigma2            0      0.00%     70.19% # Class of committed instruction
system.cpu.commit.op_class_0::SimdShaSigma3            0      0.00%     70.19% # Class of committed instruction
system.cpu.commit.op_class_0::MemRead           52948      0.24%     70.43% # Class of committed instruction
system.cpu.commit.op_class_0::MemWrite           9459      0.04%     70.47% # Class of committed instruction
system.cpu.commit.op_class_0::FloatMemRead      4457110     20.08%     90.55% # Class of committed instruction
system.cpu.commit.op_class_0::FloatMemWrite      2097488      9.45%    100.00% # Class of committed instruction
system.cpu.commit.op_class_0::IprAccess             0      0.00%    100.00% # Class of committed instruction
system.cpu.commit.op_class_0::InstPrefetch            0      0.00%    100.00% # Class of committed instruction
system.cpu.commit.op_class_0::total          22199922                       # Class of committed instruction
system.cpu.commit.bw_lim_events               2015754                       # number cycles where commit BW limit reached
system.cpu.rob.rob_reads                     27588962                       # The number of ROB reads
system.cpu.rob.rob_writes                    44642706                       # The number of ROB writes
system.cpu.timesIdled                             494                       # Number of times that the entire CPU went into an idle state and unscheduled itself
system.cpu.idleCycles                           35055                       # Total number of cycles that the CPU has spent unscheduled due to idling
system.cpu.committedInsts                    14399366                       # Number of Instructions Simulated
system.cpu.committedOps                      22199922                       # Number of Ops (including micro ops) Simulated
system.cpu.cpi                               0.510000                       # CPI: Cycles Per Instruction
system.cpu.cpi_total                         0.510000                       # CPI: Total CPI of All Threads
system.cpu.ipc                               1.960784                       # IPC: Instructions Per Cycle
system.cpu.ipc_total                         1.960784                       # IPC: Total IPC of All Threads
system.cpu.int_regfile_reads                 25036932                       # number of integer regfile reads
system.cpu.int_regfile_writes                 6956222                       # number of integer regfile writes
system.cpu.fp_regfile_reads                  14688665                       # number of floating regfile reads
system.cpu.fp_regfile_writes                 12851594                       # number of floating regfile writes
system.cpu.cc_regfile_reads                   1577910                       # number of cc regfile reads
system.cpu.cc_regfile_writes                  1774540                       # number of cc regfile writes
system.cpu.misc_regfile_reads                 7388700                       # number of misc regfile reads
system.cpu.dcache.tags.pwrStateResidencyTicks::UNDEFINED   7343676000                       # Cumulative time (in ticks) in various power states
system.cpu.dcache.tags.tagsinuse          1013.203835                       # Cycle average of tags in use
system.cpu.dcache.tags.total_refs             6839704                       # Total number of references to valid blocks.
system.cpu.dcache.tags.sampled_refs             42759                       # Sample count of references to valid blocks.
system.cpu.dcache.tags.avg_refs            159.959400                       # Average number of references to valid blocks.
system.cpu.dcache.tags.warmup_cycle            232000                       # Cycle when the warmup percentage was hit.
system.cpu.dcache.tags.occ_blocks::.cpu.data  1013.203835                       # Average occupied blocks per requestor
system.cpu.dcache.tags.occ_percent::.cpu.data     0.989457                       # Average percentage of cache occupancy
system.cpu.dcache.tags.occ_percent::total     0.989457                       # Average percentage of cache occupancy
system.cpu.dcache.tags.occ_task_id_blocks::1024         1024                       # Occupied blocks per task id
system.cpu.dcache.tags.age_task_id_blocks_1024::0          113                       # Occupied blocks per task id
system.cpu.dcache.tags.age_task_id_blocks_1024::1          185                       # Occupied blocks per task id
system.cpu.dcache.tags.age_task_id_blocks_1024::2          143                       # Occupied blocks per task id
system.cpu.dcache.tags.age_task_id_blocks_1024::3          583                       # Occupied blocks per task id
system.cpu.dcache.tags.occ_task_id_percent::1024            1                       # Percentage of cache occupancy per task id
system.cpu.dcache.tags.tag_accesses          13815929                       # Number of tag accesses
system.cpu.dcache.tags.data_accesses         13815929                       # Number of data accesses
system.cpu.dcache.pwrStateResidencyTicks::UNDEFINED   7343676000                       # Cumulative time (in ticks) in various power states
system.cpu.dcache.ReadReq_hits::.cpu.data      4692891                       # number of ReadReq hits
system.cpu.dcache.ReadReq_hits::total         4692891                       # number of ReadReq hits
system.cpu.dcache.WriteReq_hits::.cpu.data      2104054                       # number of WriteReq hits
system.cpu.dcache.WriteReq_hits::total        2104054                       # number of WriteReq hits
system.cpu.dcache.demand_hits::.cpu.data      6796945                       # number of demand (read+write) hits
system.cpu.dcache.demand_hits::total          6796945                       # number of demand (read+write) hits
system.cpu.dcache.overall_hits::.cpu.data      6796945                       # number of overall hits
system.cpu.dcache.overall_hits::total         6796945                       # number of overall hits
system.cpu.dcache.ReadReq_misses::.cpu.data        86747                       # number of ReadReq misses
system.cpu.dcache.ReadReq_misses::total         86747                       # number of ReadReq misses
system.cpu.dcache.WriteReq_misses::.cpu.data         2893                       # number of WriteReq misses
system.cpu.dcache.WriteReq_misses::total         2893                       # number of WriteReq misses
system.cpu.dcache.demand_misses::.cpu.data        89640                       # number of demand (read+write) misses
system.cpu.dcache.demand_misses::total          89640                       # number of demand (read+write) misses
system.cpu.dcache.overall_misses::.cpu.data        89640                       # number of overall misses
system.cpu.dcache.overall_misses::total         89640                       # number of overall misses
system.cpu.dcache.ReadReq_miss_latency::.cpu.data   2714322000                       # number of ReadReq miss cycles
system.cpu.dcache.ReadReq_miss_latency::total   2714322000                       # number of ReadReq miss cycles
system.cpu.dcache.WriteReq_miss_latency::.cpu.data    114242995                       # number of WriteReq miss cycles
system.cpu.dcache.WriteReq_miss_latency::total    114242995                       # number of WriteReq miss cycles
system.cpu.dcache.demand_miss_latency::.cpu.data   2828564995                       # number of demand (read+write) miss cycles
system.cpu.dcache.demand_miss_latency::total   2828564995                       # number of demand (read+write) miss cycles
system.cpu.dcache.overall_miss_latency::.cpu.data   2828564995                       # number of overall miss cycles
system.cpu.dcache.overall_miss_latency::total   2828564995                       # number of overall miss cycles
system.cpu.dcache.ReadReq_accesses::.cpu.data      4779638                       # number of ReadReq accesses(hits+misses)
system.cpu.dcache.ReadReq_accesses::total      4779638                       # number of ReadReq accesses(hits+misses)
[...]
system.l2.WritebackClean_accesses::total           89                       # number of WritebackClean accesses(hits+misses)
system.l2.ReadExReq_accesses::.cpu.data          2548                       # number of ReadExReq accesses(hits+misses)
system.l2.ReadExReq_accesses::total              2548                       # number of ReadExReq accesses(hits+misses)
system.l2.ReadCleanReq_accesses::.cpu.inst          816                       # number of ReadCleanReq accesses(hits+misses)
system.l2.ReadCleanReq_accesses::total            816                       # number of ReadCleanReq accesses(hits+misses)
system.l2.ReadSharedReq_accesses::.cpu.data        40211                       # number of ReadSharedReq accesses(hits+misses)
system.l2.ReadSharedReq_accesses::total         40211                       # number of ReadSharedReq accesses(hits+misses)
system.l2.demand_accesses::.cpu.inst              816                       # number of demand (read+write) accesses
system.l2.demand_accesses::.cpu.data            42759                       # number of demand (read+write) accesses
system.l2.demand_accesses::total                43575                       # number of demand (read+write) accesses
system.l2.overall_accesses::.cpu.inst             816                       # number of overall (read+write) accesses
system.l2.overall_accesses::.cpu.data           42759                       # number of overall (read+write) accesses
system.l2.overall_accesses::total               43575                       # number of overall (read+write) accesses
system.l2.ReadExReq_miss_rate::.cpu.data     0.163265                       # miss rate for ReadExReq accesses
system.l2.ReadExReq_miss_rate::total         0.163265                       # miss rate for ReadExReq accesses
system.l2.ReadCleanReq_miss_rate::.cpu.inst     0.985294                       # miss rate for ReadCleanReq accesses
system.l2.ReadCleanReq_miss_rate::total      0.985294                       # miss rate for ReadCleanReq accesses
system.l2.ReadSharedReq_miss_rate::.cpu.data     0.103156                       # miss rate for ReadSharedReq accesses
system.l2.ReadSharedReq_miss_rate::total     0.103156                       # miss rate for ReadSharedReq accesses
system.l2.demand_miss_rate::.cpu.inst        0.985294                       # miss rate for demand accesses
system.l2.demand_miss_rate::.cpu.data        0.106738                       # miss rate for demand accesses
system.l2.demand_miss_rate::total            0.123190                       # miss rate for demand accesses
system.l2.overall_miss_rate::.cpu.inst       0.985294                       # miss rate for overall accesses
system.l2.overall_miss_rate::.cpu.data       0.106738                       # miss rate for overall accesses
system.l2.overall_miss_rate::total           0.123190                       # miss rate for overall accesses
system.l2.ReadExReq_avg_miss_latency::.cpu.data       103500                       # average ReadExReq miss latency
system.l2.ReadExReq_avg_miss_latency::total       103500                       # average ReadExReq miss latency
system.l2.ReadCleanReq_avg_miss_latency::.cpu.inst 105253.731343                       # average ReadCleanReq miss latency
system.l2.ReadCleanReq_avg_miss_latency::total 105253.731343                       # average ReadCleanReq miss latency
system.l2.ReadSharedReq_avg_miss_latency::.cpu.data 130021.215043                       # average ReadSharedReq miss latency
system.l2.ReadSharedReq_avg_miss_latency::total 130021.215043                       # average ReadSharedReq miss latency
system.l2.demand_avg_miss_latency::.cpu.inst 105253.731343                       # average overall miss latency
system.l2.demand_avg_miss_latency::.cpu.data 127603.856266                       # average overall miss latency
system.l2.demand_avg_miss_latency::total 124256.333830                       # average overall miss latency
system.l2.overall_avg_miss_latency::.cpu.inst 105253.731343                       # average overall miss latency
system.l2.overall_avg_miss_latency::.cpu.data 127603.856266                       # average overall miss latency
system.l2.overall_avg_miss_latency::total 124256.333830                       # average overall miss latency
system.l2.blocked_cycles::no_mshrs                  0                       # number of cycles access was blocked
system.l2.blocked_cycles::no_targets                0                       # number of cycles access was blocked
system.l2.blocked::no_mshrs                         0                       # number of cycles access was blocked
system.l2.blocked::no_targets                       0                       # number of cycles access was blocked
system.l2.avg_blocked_cycles::no_mshrs            nan                       # average number of cycles each access was blocked
system.l2.avg_blocked_cycles::no_targets          nan                       # average number of cycles each access was blocked
system.l2.ReadExReq_mshr_misses::.cpu.data          416                       # number of ReadExReq MSHR misses
system.l2.ReadExReq_mshr_misses::total            416                       # number of ReadExReq MSHR misses
system.l2.ReadCleanReq_mshr_misses::.cpu.inst          804                       # number of ReadCleanReq MSHR misses
system.l2.ReadCleanReq_mshr_misses::total          804                       # number of ReadCleanReq MSHR misses
system.l2.ReadSharedReq_mshr_misses::.cpu.data         4148                       # number of ReadSharedReq MSHR misses
system.l2.ReadSharedReq_mshr_misses::total         4148                       # number of ReadSharedReq MSHR misses
system.l2.demand_mshr_misses::.cpu.inst           804                       # number of demand (read+write) MSHR misses
system.l2.demand_mshr_misses::.cpu.data          4564                       # number of demand (read+write) MSHR misses
system.l2.demand_mshr_misses::total              5368                       # number of demand (read+write) MSHR misses
system.l2.overall_mshr_misses::.cpu.inst          804                       # number of overall MSHR misses
system.l2.overall_mshr_misses::.cpu.data         4564                       # number of overall MSHR misses
system.l2.overall_mshr_misses::total             5368                       # number of overall MSHR misses
system.l2.ReadExReq_mshr_miss_latency::.cpu.data     34736000                       # number of ReadExReq MSHR miss cycles
system.l2.ReadExReq_mshr_miss_latency::total     34736000                       # number of ReadExReq MSHR miss cycles
system.l2.ReadCleanReq_mshr_miss_latency::.cpu.inst     68544000                       # number of ReadCleanReq MSHR miss cycles
system.l2.ReadCleanReq_mshr_miss_latency::total     68544000                       # number of ReadCleanReq MSHR miss cycles
system.l2.ReadSharedReq_mshr_miss_latency::.cpu.data    456368000                       # number of ReadSharedReq MSHR miss cycles
system.l2.ReadSharedReq_mshr_miss_latency::total    456368000                       # number of ReadSharedReq MSHR miss cycles
system.l2.demand_mshr_miss_latency::.cpu.inst     68544000                       # number of demand (read+write) MSHR miss cycles
system.l2.demand_mshr_miss_latency::.cpu.data    491104000                       # number of demand (read+write) MSHR miss cycles
system.l2.demand_mshr_miss_latency::total    559648000                       # number of demand (read+write) MSHR miss cycles
system.l2.overall_mshr_miss_latency::.cpu.inst     68544000                       # number of overall MSHR miss cycles
system.l2.overall_mshr_miss_latency::.cpu.data    491104000                       # number of overall MSHR miss cycles
system.l2.overall_mshr_miss_latency::total    559648000                       # number of overall MSHR miss cycles
system.l2.ReadExReq_mshr_miss_rate::.cpu.data     0.163265                       # mshr miss rate for ReadExReq accesses
system.l2.ReadExReq_mshr_miss_rate::total     0.163265                       # mshr miss rate for ReadExReq accesses
system.l2.ReadCleanReq_mshr_miss_rate::.cpu.inst     0.985294                       # mshr miss rate for ReadCleanReq accesses
system.l2.ReadCleanReq_mshr_miss_rate::total     0.985294                       # mshr miss rate for ReadCleanReq accesses
system.l2.ReadSharedReq_mshr_miss_rate::.cpu.data     0.103156                       # mshr miss rate for ReadSharedReq accesses
system.l2.ReadSharedReq_mshr_miss_rate::total     0.103156                       # mshr miss rate for ReadSharedReq accesses
system.l2.demand_mshr_miss_rate::.cpu.inst     0.985294                       # mshr miss rate for demand accesses
system.l2.demand_mshr_miss_rate::.cpu.data     0.106738                       # mshr miss rate for demand accesses
system.l2.demand_mshr_miss_rate::total       0.123190                       # mshr miss rate for demand accesses
system.l2.overall_mshr_miss_rate::.cpu.inst     0.985294                       # mshr miss rate for overall accesses
system.l2.overall_mshr_miss_rate::.cpu.data     0.106738                       # mshr miss rate for overall accesses
system.l2.overall_mshr_miss_rate::total      0.123190                       # mshr miss rate for overall accesses
system.l2.ReadExReq_avg_mshr_miss_latency::.cpu.data        83500                       # average ReadExReq mshr miss latency
system.l2.ReadExReq_avg_mshr_miss_latency::total        83500                       # average ReadExReq mshr miss latency
system.l2.ReadCleanReq_avg_mshr_miss_latency::.cpu.inst 85253.731343                       # average ReadCleanReq mshr miss latency
system.l2.ReadCleanReq_avg_mshr_miss_latency::total 85253.731343                       # average ReadCleanReq mshr miss latency
system.l2.ReadSharedReq_avg_mshr_miss_latency::.cpu.data 110021.215043                       # average ReadSharedReq mshr miss latency
system.l2.ReadSharedReq_avg_mshr_miss_latency::total 110021.215043                       # average ReadSharedReq mshr miss latency
system.l2.demand_avg_mshr_miss_latency::.cpu.inst 85253.731343                       # average overall mshr miss latency
system.l2.demand_avg_mshr_miss_latency::.cpu.data 107603.856266                       # average overall mshr miss latency
system.l2.demand_avg_mshr_miss_latency::total 104256.333830                       # average overall mshr miss latency
system.l2.overall_avg_mshr_miss_latency::.cpu.inst 85253.731343                       # average overall mshr miss latency
system.l2.overall_avg_mshr_miss_latency::.cpu.data 107603.856266                       # average overall mshr miss latency
system.l2.overall_avg_mshr_miss_latency::total 104256.333830                       # average overall mshr miss latency
system.l2.replacements                              0                       # number of replacements
system.membus.snoop_filter.tot_requests          5368                       # Total number of requests made to the snoop filter.
system.membus.snoop_filter.hit_single_requests            0                       # Number of requests hitting in the snoop filter with a single holder of the requested data.
system.membus.snoop_filter.hit_multi_requests            0                       # Number of requests hitting in the snoop filter with multiple (>1) holders of the requested data.
system.membus.snoop_filter.tot_snoops               0                       # Total number of snoops made to the snoop filter.
system.membus.snoop_filter.hit_single_snoops            0                       # Number of snoops hitting in the snoop filter with a single holder of the requested data.
system.membus.snoop_filter.hit_multi_snoops            0                       # Number of snoops hitting in the snoop filter with multiple (>1) holders of the requested data.
system.membus.pwrStateResidencyTicks::UNDEFINED   7343676000                       # Cumulative time (in ticks) in various power states
system.membus.trans_dist::ReadResp               4952                       # Transaction distribution
system.membus.trans_dist::ReadExReq               416                       # Transaction distribution
system.membus.trans_dist::ReadExResp              416                       # Transaction distribution
system.membus.trans_dist::ReadSharedReq          4952                       # Transaction distribution
system.membus.pkt_count_system.l2.mem_side::system.mem_ctrls.port        10736                       # Packet count per connected master and slave (bytes)
system.membus.pkt_count_system.l2.mem_side::total        10736                       # Packet count per connected master and slave (bytes)
system.membus.pkt_count::total                  10736                       # Packet count per connected master and slave (bytes)
system.membus.pkt_size_system.l2.mem_side::system.mem_ctrls.port       343552                       # Cumulative packet size per connected master and slave (bytes)
system.membus.pkt_size_system.l2.mem_side::total       343552                       # Cumulative packet size per connected master and slave (bytes)
system.membus.pkt_size::total                  343552                       # Cumulative packet size per connected master and slave (bytes)
system.membus.snoops                                0                       # Total snoops (count)
system.membus.snoopTraffic                          0                       # Total snoop traffic (bytes)
system.membus.snoop_fanout::samples              5368                       # Request fanout histogram
system.membus.snoop_fanout::mean                    0                       # Request fanout histogram
system.membus.snoop_fanout::stdev                   0                       # Request fanout histogram
system.membus.snoop_fanout::underflows              0      0.00%      0.00% # Request fanout histogram
system.membus.snoop_fanout::0                    5368    100.00%    100.00% # Request fanout histogram
system.membus.snoop_fanout::1                       0      0.00%    100.00% # Request fanout histogram
system.membus.snoop_fanout::overflows               0      0.00%    100.00% # Request fanout histogram
system.membus.snoop_fanout::min_value               0                       # Request fanout histogram
system.membus.snoop_fanout::max_value               0                       # Request fanout histogram
system.membus.snoop_fanout::total                5368                       # Request fanout histogram
system.membus.reqLayer2.occupancy             5368000                       # Layer occupancy (ticks)
system.membus.reqLayer2.utilization               0.1                       # Layer utilization (%)
system.membus.respLayer1.occupancy           28310250                       # Layer occupancy (ticks)
system.membus.respLayer1.utilization              0.4                       # Layer utilization (%)
system.tol2bus.snoop_filter.tot_requests        85400                       # Total number of requests made to the snoop filter.
system.tol2bus.snoop_filter.hit_single_requests        41826                       # Number of requests hitting in the snoop filter with a single holder of the requested data.
system.tol2bus.snoop_filter.hit_multi_requests            6                       # Number of requests hitting in the snoop filter with multiple (>1) holders of the requested data.
system.tol2bus.snoop_filter.tot_snoops              0                       # Total number of snoops made to the snoop filter.
system.tol2bus.snoop_filter.hit_single_snoops            0                       # Number of snoops hitting in the snoop filter with a single holder of the requested data.
system.tol2bus.snoop_filter.hit_multi_snoops            0                       # Number of snoops hitting in the snoop filter with multiple (>1) holders of the requested data.
system.tol2bus.pwrStateResidencyTicks::UNDEFINED   7343676000                       # Cumulative time (in ticks) in various power states
system.tol2bus.trans_dist::ReadResp             41027                       # Transaction distribution
system.tol2bus.trans_dist::WritebackDirty        15791                       # Transaction distribution
system.tol2bus.trans_dist::WritebackClean           90                       # Transaction distribution
system.tol2bus.trans_dist::CleanEvict           25944                       # Transaction distribution
system.tol2bus.trans_dist::ReadExReq             2548                       # Transaction distribution
system.tol2bus.trans_dist::ReadExResp            2548                       # Transaction distribution
system.tol2bus.trans_dist::ReadCleanReq           816                       # Transaction distribution
system.tol2bus.trans_dist::ReadSharedReq        40211                       # Transaction distribution
system.tol2bus.pkt_count_system.cpu.icache.mem_side::system.l2.cpu_side         1722                       # Packet count per connected master and slave (bytes)
system.tol2bus.pkt_count_system.cpu.dcache.mem_side::system.l2.cpu_side       127253                       # Packet count per connected master and slave (bytes)
system.tol2bus.pkt_count::total                128975                       # Packet count per connected master and slave (bytes)
system.tol2bus.pkt_size_system.cpu.icache.mem_side::system.l2.cpu_side        57984                       # Cumulative packet size per connected master and slave (bytes)
system.tol2bus.pkt_size_system.cpu.dcache.mem_side::system.l2.cpu_side      3747200                       # Cumulative packet size per connected master and slave (bytes)
system.tol2bus.pkt_size::total                3805184                       # Cumulative packet size per connected master and slave (bytes)
system.tol2bus.snoops                               0                       # Total snoops (count)
system.tol2bus.snoopTraffic                         0                       # Total snoop traffic (bytes)
system.tol2bus.snoop_fanout::samples            43575                       # Request fanout histogram
system.tol2bus.snoop_fanout::mean            0.000161                       # Request fanout histogram
system.tol2bus.snoop_fanout::stdev           0.012674                       # Request fanout histogram
system.tol2bus.snoop_fanout::underflows             0      0.00%      0.00% # Request fanout histogram
system.tol2bus.snoop_fanout::0                  43568     99.98%     99.98% # Request fanout histogram
system.tol2bus.snoop_fanout::1                      7      0.02%    100.00% # Request fanout histogram
system.tol2bus.snoop_fanout::2                      0      0.00%    100.00% # Request fanout histogram
system.tol2bus.snoop_fanout::3                      0      0.00%    100.00% # Request fanout histogram
system.tol2bus.snoop_fanout::4                      0      0.00%    100.00% # Request fanout histogram
system.tol2bus.snoop_fanout::overflows              0      0.00%    100.00% # Request fanout histogram
system.tol2bus.snoop_fanout::min_value              0                       # Request fanout histogram
system.tol2bus.snoop_fanout::max_value              1                       # Request fanout histogram
system.tol2bus.snoop_fanout::total              43575                       # Request fanout histogram
system.tol2bus.reqLayer0.occupancy          117162000                       # Layer occupancy (ticks)
system.tol2bus.reqLayer0.utilization              1.6                       # Layer utilization (%)
system.tol2bus.respLayer0.occupancy           2450997                       # Layer occupancy (ticks)
system.tol2bus.respLayer0.utilization             0.0                       # Layer utilization (%)
system.tol2bus.respLayer1.occupancy         128277000                       # Layer occupancy (ticks)
system.tol2bus.respLayer1.utilization             1.7                       # Layer utilization (%)

---------- End Simulation Statistics   ----------
