
---------- Begin Simulation Statistics ----------
sim_seconds                                  0.026545                       # Number of seconds simulated
sim_ticks                                 26545470000                       # Number of ticks simulated
final_tick                                26545470000                       # Number of ticks from beginning of simulation (restored from checkpoints and never reset)
sim_freq                                 1000000000000                       # Frequency of simulated ticks
host_inst_rate                                  84308                       # Simulator instruction rate (inst/s)
host_op_rate                                   130653                       # Simulator op (including micro ops) rate (op/s)
host_tick_rate                              401225507                       # Simulator tick rate (ticks/s)
host_mem_usage                                 671876                       # Number of bytes of host memory used
host_seconds                                    66.16                       # Real time elapsed on the host
sim_insts                                     5577908                       # Number of instructions simulated
sim_ops                                       8644102                       # Number of ops (including micro ops) simulated
system.voltage_domain.voltage                       1                       # Voltage in Volts
system.clk_domain.clock                          1000                       # Clock period in ticks
system.mem_ctrls.pwrStateResidencyTicks::UNDEFINED  26545470000                       # Cumulative time (in ticks) in various power states
system.mem_ctrls.bytes_read::.cpu.inst          54592                       # Number of bytes read from this memory
system.mem_ctrls.bytes_read::.cpu.data        2191744                       # Number of bytes read from this memory
system.mem_ctrls.bytes_read::total            2246336                       # Number of bytes read from this memory
system.mem_ctrls.bytes_inst_read::.cpu.inst        54592                       # Number of instructions bytes read from this memory
system.mem_ctrls.bytes_inst_read::total         54592                       # Number of instructions bytes read from this memory
system.mem_ctrls.bytes_written::.writebacks        30272                       # Number of bytes written to this memory
system.mem_ctrls.bytes_written::total           30272                       # Number of bytes written to this memory
system.mem_ctrls.num_reads::.cpu.inst             853                       # Number of read requests responded to by this memory
system.mem_ctrls.num_reads::.cpu.data           34246                       # Number of read requests responded to by this memory
system.mem_ctrls.num_reads::total               35099                       # Number of read requests responded to by this memory
system.mem_ctrls.num_writes::.writebacks          473                       # Number of write requests responded to by this memory
system.mem_ctrls.num_writes::total                473                       # Number of write requests responded to by this memory
system.mem_ctrls.bw_read::.cpu.inst           2056547                       # Total read bandwidth from this memory (bytes/s)
system.mem_ctrls.bw_read::.cpu.data          82565651                       # Total read bandwidth from this memory (bytes/s)
system.mem_ctrls.bw_read::total              84622197                       # Total read bandwidth from this memory (bytes/s)
system.mem_ctrls.bw_inst_read::.cpu.inst      2056547                       # Instruction read bandwidth from this memory (bytes/s)
system.mem_ctrls.bw_inst_read::total          2056547                       # Instruction read bandwidth from this memory (bytes/s)
system.mem_ctrls.bw_write::.writebacks        1140383                       # Write bandwidth from this memory (bytes/s)
system.mem_ctrls.bw_write::total              1140383                       # Write bandwidth from this memory (bytes/s)
system.mem_ctrls.bw_total::.writebacks        1140383                       # Total bandwidth to/from this memory (bytes/s)
system.mem_ctrls.bw_total::.cpu.inst          2056547                       # Total bandwidth to/from this memory (bytes/s)
system.mem_ctrls.bw_total::.cpu.data         82565651                       # Total bandwidth to/from this memory (bytes/s)
system.mem_ctrls.bw_total::total             85762580                       # Total bandwidth to/from this memory (bytes/s)
system.mem_ctrls.avgPriority_.writebacks::samples       473.00                       # Average QoS priority value for accepted requests
system.mem_ctrls.avgPriority_.cpu.inst::samples       853.00                       # Average QoS priority value for accepted requests
system.mem_ctrls.avgPriority_.cpu.data::samples     34244.00                       # Average QoS priority value for accepted requests
system.mem_ctrls.priorityMinLatency      0.000000018750                       # per QoS priority minimum request to response latency (s)
system.mem_ctrls.priorityMaxLatency      0.003110066750                       # per QoS priority maximum request to response latency (s)
system.mem_ctrls.numReadWriteTurnArounds           26                       # Number of turnarounds from READ to WRITE
system.mem_ctrls.numWriteReadTurnArounds           26                       # Number of turnarounds from WRITE to READ
system.mem_ctrls.numStayReadState               72364                       # Number of times bus staying in READ state
system.mem_ctrls.numStayWriteState                430                       # Number of times bus staying in WRITE state
system.mem_ctrls.readReqs                       35099                       # Number of read requests accepted
system.mem_ctrls.writeReqs                        473                       # Number of write requests accepted
system.mem_ctrls.readBursts                     35099                       # Number of DRAM read bursts, including those serviced by the write queue
system.mem_ctrls.writeBursts                      473                       # Number of DRAM write bursts, including those merged in the write queue
system.mem_ctrls.bytesReadDRAM                2246208                       # Total number of bytes read from DRAM
system.mem_ctrls.bytesReadWrQ                     128                       # Total number of bytes read from write queue
system.mem_ctrls.bytesWritten                   29056                       # Total number of bytes written to DRAM
system.mem_ctrls.bytesReadSys                 2246336                       # Total read bytes from the system interface side
system.mem_ctrls.bytesWrittenSys                30272                       # Total written bytes from the system interface side
system.mem_ctrls.servicedByWrQ                      2                       # Number of DRAM read bursts serviced by the write queue
system.mem_ctrls.mergedWrBursts                     0                       # Number of DRAM write bursts merged with an existing one
system.mem_ctrls.neitherReadNorWriteReqs            0                       # Number of requests that are neither read nor write
system.mem_ctrls.perBankRdBursts::0              2231                       # Per bank write bursts
system.mem_ctrls.perBankRdBursts::1              2250                       # Per bank write bursts
system.mem_ctrls.perBankRdBursts::2              2230                       # Per bank write bursts
system.mem_ctrls.perBankRdBursts::3              2125                       # Per bank write bursts
system.mem_ctrls.perBankRdBursts::4              2170                       # Per bank write bursts
system.mem_ctrls.perBankRdBursts::5              2266                       # Per bank write bursts
system.mem_ctrls.perBankRdBursts::6              2239                       # Per bank write bursts
system.mem_ctrls.perBankRdBursts::7              2252                       # Per bank write bursts
system.mem_ctrls.perBankRdBursts::8              2252                       # Per bank write bursts
system.mem_ctrls.perBankRdBursts::9              2259                       # Per bank write bursts
system.mem_ctrls.perBankRdBursts::10             2233                       # Per bank write bursts
system.mem_ctrls.perBankRdBursts::11             2173                       # Per bank write bursts
system.mem_ctrls.perBankRdBursts::12             2103                       # Per bank write bursts
system.mem_ctrls.perBankRdBursts::13             2096                       # Per bank write bursts
system.mem_ctrls.perBankRdBursts::14             2104                       # Per bank write bursts
system.mem_ctrls.perBankRdBursts::15             2114                       # Per bank write bursts
system.mem_ctrls.perBankWrBursts::0                85                       # Per bank write bursts
system.mem_ctrls.perBankWrBursts::1               115                       # Per bank write bursts
system.mem_ctrls.perBankWrBursts::2                70                       # Per bank write bursts
system.mem_ctrls.perBankWrBursts::3                 2                       # Per bank write bursts
system.mem_ctrls.perBankWrBursts::4                16                       # Per bank write bursts
system.mem_ctrls.perBankWrBursts::5                97                       # Per bank write bursts
system.mem_ctrls.perBankWrBursts::6                38                       # Per bank write bursts
system.mem_ctrls.perBankWrBursts::7                 0                       # Per bank write bursts
system.mem_ctrls.perBankWrBursts::8                 0                       # Per bank write bursts
system.mem_ctrls.perBankWrBursts::9                 0                       # Per bank write bursts
system.mem_ctrls.perBankWrBursts::10               31                       # Per bank write bursts
system.mem_ctrls.perBankWrBursts::11                0                       # Per bank write bursts
system.mem_ctrls.perBankWrBursts::12                0                       # Per bank write bursts
system.mem_ctrls.perBankWrBursts::13                0                       # Per bank write bursts
system.mem_ctrls.perBankWrBursts::14                0                       # Per bank write bursts
system.mem_ctrls.perBankWrBursts::15                0                       # Per bank write bursts
system.mem_ctrls.numRdRetry                         0                       # Number of times read queue was full causing retry
system.mem_ctrls.numWrRetry                         0                       # Number of times write queue was full causing retry
system.mem_ctrls.totGap                   26545328000                       # Total gap between requests
system.mem_ctrls.readPktSize::0                     0                       # Read request sizes (log2)
system.mem_ctrls.readPktSize::1                     0                       # Read request sizes (log2)
system.mem_ctrls.readPktSize::2                     0                       # Read request sizes (log2)
system.mem_ctrls.readPktSize::3                     0                       # Read request sizes (log2)
system.mem_ctrls.readPktSize::4                     0                       # Read request sizes (log2)
system.mem_ctrls.readPktSize::5                     0                       # Read request sizes (log2)
system.mem_ctrls.readPktSize::6                 35099                       # Read request sizes (log2)
system.mem_ctrls.writePktSize::0                    0                       # Write request sizes (log2)
system.mem_ctrls.writePktSize::1                    0                       # Write request sizes (log2)
system.mem_ctrls.writePktSize::2                    0                       # Write request sizes (log2)
system.mem_ctrls.writePktSize::3                    0                       # Write request sizes (log2)
system.mem_ctrls.writePktSize::4                    0                       # Write request sizes (log2)
system.mem_ctrls.writePktSize::5                    0                       # Write request sizes (log2)
system.mem_ctrls.writePktSize::6                  473                       # Write request sizes (log2)
system.mem_ctrls.rdQLenPdf::0                   34864                       # What read queue length does an incoming req see
system.mem_ctrls.rdQLenPdf::1                     222                       # What read queue length does an incoming req see
system.mem_ctrls.rdQLenPdf::2                      11                       # What read queue length does an incoming req see
system.mem_ctrls.rdQLenPdf::3                       0                       # What read queue length does an incoming req see
system.mem_ctrls.rdQLenPdf::4                       0                       # What read queue length does an incoming req see
system.mem_ctrls.rdQLenPdf::5                       0                       # What read queue length does an incoming req see
system.mem_ctrls.rdQLenPdf::6                       0                       # What read queue length does an incoming req see
system.mem_ctrls.rdQLenPdf::7                       0                       # What read queue length does an incoming req see
system.mem_ctrls.rdQLenPdf::8                       0                       # What read queue length does an incoming req see
system.mem_ctrls.rdQLenPdf::9                       0                       # What read queue length does an incoming req see
system.mem_ctrls.rdQLenPdf::10                      0                       # What read queue length does an incoming req see
system.mem_ctrls.rdQLenPdf::11                      0                       # What read queue length does an incoming req see
system.mem_ctrls.rdQLenPdf::12                      0                       # What read queue length does an incoming req see
system.mem_ctrls.rdQLenPdf::13                      0                       # What read queue length does an incoming req see
system.mem_ctrls.rdQLenPdf::14                      0                       # What read queue length does an incoming req see
system.mem_ctrls.rdQLenPdf::15                      0                       # What read queue length does an incoming req see
system.mem_ctrls.rdQLenPdf::16                      0                       # What read queue length does an incoming req see
system.mem_ctrls.rdQLenPdf::17                      0                       # What read queue length does an incoming req see
system.mem_ctrls.rdQLenPdf::18                      0                       # What read queue length does an incoming req see
system.mem_ctrls.rdQLenPdf::19                      0                       # What read queue length does an incoming req see
system.mem_ctrls.rdQLenPdf::20                      0                       # What read queue length does an incoming req see
system.mem_ctrls.rdQLenPdf::21                      0                       # What read queue length does an incoming req see
system.mem_ctrls.rdQLenPdf::22                      0                       # What read queue length does an incoming req see
system.mem_ctrls.rdQLenPdf::23                      0                       # What read queue length does an incoming req see
system.mem_ctrls.rdQLenPdf::24                      0                       # What read queue length does an incoming req see
system.mem_ctrls.rdQLenPdf::25                      0                       # What read queue length does an incoming req see
system.mem_ctrls.rdQLenPdf::26                      0                       # What read queue length does an incoming req see
system.mem_ctrls.rdQLenPdf::27                      0                       # What read queue length does an incoming req see
system.mem_ctrls.rdQLenPdf::28                      0                       # What read queue length does an incoming req see
system.mem_ctrls.rdQLenPdf::29                      0                       # What read queue length does an incoming req see
system.mem_ctrls.rdQLenPdf::30                      0                       # What read queue length does an incoming req see
system.mem_ctrls.rdQLenPdf::31                      0                       # What read queue length does an incoming req see
system.mem_ctrls.wrQLenPdf::0                       1                       # What write queue length does an incoming req see
system.mem_ctrls.wrQLenPdf::1                       1                       # What write queue length does an incoming req see
system.mem_ctrls.wrQLenPdf::2                       1                       # What write queue length does an incoming req see
system.mem_ctrls.wrQLenPdf::3                       1                       # What write queue length does an incoming req see
system.mem_ctrls.wrQLenPdf::4                       1                       # What write queue length does an incoming req see
system.mem_ctrls.wrQLenPdf::5                       1                       # What write queue length does an incoming req see
system.mem_ctrls.wrQLenPdf::6                       1                       # What write queue length does an incoming req see
system.mem_ctrls.wrQLenPdf::7                       1                       # What write queue length does an incoming req see
system.mem_ctrls.wrQLenPdf::8                       1                       # What write queue length does an incoming req see
system.mem_ctrls.wrQLenPdf::9                       1                       # What write queue length does an incoming req see
system.mem_ctrls.wrQLenPdf::10                      1                       # What write queue length does an incoming req see
system.mem_ctrls.wrQLenPdf::11                      1                       # What write queue length does an incoming req see
system.mem_ctrls.wrQLenPdf::12                      1                       # What write queue length does an incoming req see
system.mem_ctrls.wrQLenPdf::13                      1                       # What write queue length does an incoming req see
system.mem_ctrls.wrQLenPdf::14                      1                       # What write queue length does an incoming req see
system.mem_ctrls.wrQLenPdf::15                     20                       # What write queue length does an incoming req see
system.mem_ctrls.wrQLenPdf::16                     20                       # What write queue length does an incoming req see
system.mem_ctrls.wrQLenPdf::17                     27                       # What write queue length does an incoming req see
system.mem_ctrls.wrQLenPdf::18                     27                       # What write queue length does an incoming req see
system.mem_ctrls.wrQLenPdf::19                     26                       # What write queue length does an incoming req see
system.mem_ctrls.wrQLenPdf::20                     26                       # What write queue length does an incoming req see
system.mem_ctrls.wrQLenPdf::21                     26                       # What write queue length does an incoming req see
system.mem_ctrls.wrQLenPdf::22                     26                       # What write queue length does an incoming req see
system.mem_ctrls.wrQLenPdf::23                     26                       # What write queue length does an incoming req see
system.mem_ctrls.wrQLenPdf::24                     26                       # What write queue length does an incoming req see
system.mem_ctrls.wrQLenPdf::25                     26                       # What write queue length does an incoming req see
system.mem_ctrls.wrQLenPdf::26                     26                       # What write queue length does an incoming req see
system.mem_ctrls.wrQLenPdf::27                     26                       # What write queue length does an incoming req see
system.mem_ctrls.wrQLenPdf::28                     26                       # What write queue length does an incoming req see
system.mem_ctrls.wrQLenPdf::29                     26                       # What write queue length does an incoming req see
system.mem_ctrls.wrQLenPdf::30                     26                       # What write queue length does an incoming req see
system.mem_ctrls.wrQLenPdf::31                     26                       # What write queue length does an incoming req see
system.mem_ctrls.wrQLenPdf::32                     26                       # What write queue length does an incoming req see
system.mem_ctrls.wrQLenPdf::33                      0                       # What write queue length does an incoming req see
system.mem_ctrls.wrQLenPdf::34                      0                       # What write queue length does an incoming req see
system.mem_ctrls.wrQLenPdf::35                      0                       # What write queue length does an incoming req see
system.mem_ctrls.wrQLenPdf::36                      0                       # What write queue length does an incoming req see
system.mem_ctrls.wrQLenPdf::37                      0                       # What write queue length does an incoming req see
system.mem_ctrls.wrQLenPdf::38                      0                       # What write queue length does an incoming req see
system.mem_ctrls.wrQLenPdf::39                      0                       # What write queue length does an incoming req see
system.mem_ctrls.wrQLenPdf::40                      0                       # What write queue length does an incoming req see
system.mem_ctrls.wrQLenPdf::41                      0                       # What write queue length does an incoming req see
system.mem_ctrls.wrQLenPdf::42                      0                       # What write queue length does an incoming req see
system.mem_ctrls.wrQLenPdf::43                      0                       # What write queue length does an incoming req see
system.mem_ctrls.wrQLenPdf::44                      0                       # What write queue length does an incoming req see
system.mem_ctrls.wrQLenPdf::45                      0                       # What write queue length does an incoming req see
system.mem_ctrls.wrQLenPdf::46                      0                       # What write queue length does an incoming req see
system.mem_ctrls.wrQLenPdf::47                      0                       # What write queue length does an incoming req see
system.mem_ctrls.wrQLenPdf::48                      0                       # What write queue length does an incoming req see
system.mem_ctrls.wrQLenPdf::49                      0                       # What write queue length does an incoming req see
system.mem_ctrls.wrQLenPdf::50                      0                       # What write queue length does an incoming req see
system.mem_ctrls.wrQLenPdf::51                      0                       # What write queue length does an incoming req see
system.mem_ctrls.wrQLenPdf::52                      0                       # What write queue length does an incoming req see
system.mem_ctrls.wrQLenPdf::53                      0                       # What write queue length does an incoming req see
system.mem_ctrls.wrQLenPdf::54                      0                       # What write queue length does an incoming req see
system.mem_ctrls.wrQLenPdf::55                      0                       # What write queue length does an incoming req see
system.mem_ctrls.wrQLenPdf::56                      0                       # What write queue length does an incoming req see
system.mem_ctrls.wrQLenPdf::57                      0                       # What write queue length does an incoming req see
system.mem_ctrls.wrQLenPdf::58                      0                       # What write queue length does an incoming req see
system.mem_ctrls.wrQLenPdf::59                      0                       # What write queue length does an incoming req see
system.mem_ctrls.wrQLenPdf::60                      0                       # What write queue length does an incoming req see
system.mem_ctrls.wrQLenPdf::61                      0                       # What write queue length does an incoming req see
system.mem_ctrls.wrQLenPdf::62                      0                       # What write queue length does an incoming req see
system.mem_ctrls.wrQLenPdf::63                      0                       # What write queue length does an incoming req see
system.mem_ctrls.bytesPerActivate::samples        32135                       # Bytes accessed per row activation
system.mem_ctrls.bytesPerActivate::mean     70.779399                       # Bytes accessed per row activation
system.mem_ctrls.bytesPerActivate::gmean    66.949203                       # Bytes accessed per row activation
system.mem_ctrls.bytesPerActivate::stdev    53.421860                       # Bytes accessed per row activation
system.mem_ctrls.bytesPerActivate::0-127        30626     95.30%     95.30% # Bytes accessed per row activation
system.mem_ctrls.bytesPerActivate::128-255         1247      3.88%     99.18% # Bytes accessed per row activation
system.mem_ctrls.bytesPerActivate::256-383           92      0.29%     99.47% # Bytes accessed per row activation
system.mem_ctrls.bytesPerActivate::384-511           42      0.13%     99.60% # Bytes accessed per row activation
system.mem_ctrls.bytesPerActivate::512-639           37      0.12%     99.72% # Bytes accessed per row activation
system.mem_ctrls.bytesPerActivate::640-767           17      0.05%     99.77% # Bytes accessed per row activation
system.mem_ctrls.bytesPerActivate::768-895           13      0.04%     99.81% # Bytes accessed per row activation
system.mem_ctrls.bytesPerActivate::896-1023            7      0.02%     99.83% # Bytes accessed per row activation
system.mem_ctrls.bytesPerActivate::1024-1151           54      0.17%    100.00% # Bytes accessed per row activation
system.mem_ctrls.bytesPerActivate::total        32135                       # Bytes accessed per row activation
system.mem_ctrls.rdPerTurnAround::samples           26                       # Reads before turning the bus around for writes
system.mem_ctrls.rdPerTurnAround::mean    1343.846154                       # Reads before turning the bus around for writes
system.mem_ctrls.rdPerTurnAround::gmean    423.387684                       # Reads before turning the bus around for writes
system.mem_ctrls.rdPerTurnAround::stdev   4616.394062                       # Reads before turning the bus around for writes
system.mem_ctrls.rdPerTurnAround::0-1023           23     88.46%     88.46% # Reads before turning the bus around for writes
system.mem_ctrls.rdPerTurnAround::1024-2047            2      7.69%     96.15% # Reads before turning the bus around for writes
system.mem_ctrls.rdPerTurnAround::23552-24575            1      3.85%    100.00% # Reads before turning the bus around for writes
system.mem_ctrls.rdPerTurnAround::total            26                       # Reads before turning the bus around for writes
system.mem_ctrls.wrPerTurnAround::samples           26                       # Writes before turning the bus around for reads
system.mem_ctrls.wrPerTurnAround::mean      17.461538                       # Writes before turning the bus around for reads
system.mem_ctrls.wrPerTurnAround::gmean     17.438161                       # Writes before turning the bus around for reads
system.mem_ctrls.wrPerTurnAround::stdev      0.904689                       # Writes before turning the bus around for reads
system.mem_ctrls.wrPerTurnAround::16                7     26.92%     26.92% # Writes before turning the bus around for reads
system.mem_ctrls.wrPerTurnAround::18               19     73.08%    100.00% # Writes before turning the bus around for reads
system.mem_ctrls.wrPerTurnAround::total            26                       # Writes before turning the bus around for reads
system.mem_ctrls.masterReadBytes::.cpu.inst        54592                       # Per-master bytes read from memory
system.mem_ctrls.masterReadBytes::.cpu.data      2191616                       # Per-master bytes read from memory
system.mem_ctrls.masterWriteBytes::.writebacks        29056                       # Per-master bytes write to memory
system.mem_ctrls.masterReadRate::.cpu.inst 2056546.747900865739                       # Per-master bytes read from memory rate (Bytes/sec)
system.mem_ctrls.masterReadRate::.cpu.data 82560828.646092906594                       # Per-master bytes read from memory rate (Bytes/sec)
system.mem_ctrls.masterWriteRate::.writebacks 1094574.705213356530                       # Per-master bytes write to memory rate (Bytes/sec)
system.mem_ctrls.masterReadAccesses::.cpu.inst          853                       # Per-master read serviced memory accesses
system.mem_ctrls.masterReadAccesses::.cpu.data        34246                       # Per-master read serviced memory accesses
system.mem_ctrls.masterWriteAccesses::.writebacks          473                       # Per-master write serviced memory accesses
system.mem_ctrls.masterReadTotalLat::.cpu.inst     26995750                       # Per-master read total memory access latency
system.mem_ctrls.masterReadTotalLat::.cpu.data   1724657500                       # Per-master read total memory access latency
system.mem_ctrls.masterWriteTotalLat::.writebacks  82464178500                       # Per-master write total memory access latency
system.mem_ctrls.masterReadAvgLat::.cpu.inst     31648.01                       # Per-master read average memory access latency
system.mem_ctrls.masterReadAvgLat::.cpu.data     50360.85                       # Per-master read average memory access latency
system.mem_ctrls.masterWriteAvgLat::.writebacks 174342872.09                       # Per-master write average memory access latency
system.mem_ctrls.totQLat                   1093584500                       # Total ticks spent queuing
system.mem_ctrls.totMemAccLat              1751653250                       # Total ticks spent from burst creation until serviced by the DRAM
system.mem_ctrls.totBusLat                  175485000                       # Total ticks spent in databus transfers
system.mem_ctrls.avgQLat                     31158.92                       # Average queueing delay per DRAM burst
system.mem_ctrls.avgBusLat                    5000.00                       # Average bus latency per DRAM burst
system.mem_ctrls.avgMemAccLat                49908.92                       # Average memory access latency per DRAM burst
system.mem_ctrls.avgRdBW                        84.62                       # Average DRAM read bandwidth in MiByte/s
system.mem_ctrls.avgWrBW                         1.09                       # Average achieved write bandwidth in MiByte/s
system.mem_ctrls.avgRdBWSys                     84.62                       # Average system read bandwidth in MiByte/s
system.mem_ctrls.avgWrBWSys                      1.14                       # Average system write bandwidth in MiByte/s
system.mem_ctrls.peakBW                      12800.00                       # Theoretical peak bandwidth in MiByte/s
system.mem_ctrls.busUtil                         0.67                       # Data bus utilization in percentage
system.mem_ctrls.busUtilRead                     0.66                       # Data bus utilization in percentage for reads
system.mem_ctrls.busUtilWrite                    0.01                       # Data bus utilization in percentage for writes
system.mem_ctrls.avgRdQLen                       1.00                       # Average read queue length when enqueuing
system.mem_ctrls.avgWrQLen                      17.55                       # Average write queue length when enqueuing
system.mem_ctrls.readRowHits                     3054                       # Number of row buffer hits during reads
system.mem_ctrls.writeRowHits                     360                       # Number of row buffer hits during writes
system.mem_ctrls.readRowHitRate                  8.70                       # Row buffer hit rate for reads
system.mem_ctrls.writeRowHitRate                76.11                       # Row buffer hit rate for writes
system.mem_ctrls.avgGap                     746242.21                       # Average gap between requests
system.mem_ctrls.pageHitRate                     9.60                       # Row buffer hit rate, read and write combined
system.mem_ctrls_0.actEnergy                115339560                       # Energy for activate commands per rank (pJ)
system.mem_ctrls_0.preEnergy                 61296840                       # Energy for precharge commands per rank (pJ)
system.mem_ctrls_0.readEnergy               126827820                       # Energy for read commands per rank (pJ)
system.mem_ctrls_0.writeEnergy                2208060                       # Energy for write commands per rank (pJ)
system.mem_ctrls_0.refreshEnergy         528590400.000000                       # Energy for refresh commands per rank (pJ)
system.mem_ctrls_0.actBackEnergy            467158890                       # Energy for active background per rank (pJ)
system.mem_ctrls_0.preBackEnergy             11944320                       # Energy for precharge background per rank (pJ)
system.mem_ctrls_0.actPowerDownEnergy      2493835500                       # Energy for active power-down per rank (pJ)
system.mem_ctrls_0.prePowerDownEnergy        67271520                       # Energy for precharge power-down per rank (pJ)
system.mem_ctrls_0.selfRefreshEnergy       4764641520                       # Energy for self refresh per rank (pJ)
system.mem_ctrls_0.totalEnergy             8639114430                       # Total energy per rank (pJ)
system.mem_ctrls_0.averagePower            325.445902                       # Core power per rank (mW)
system.mem_ctrls_0.totalIdleTime          25490250000                       # Total Idle time Per DRAM Rank
system.mem_ctrls_0.memoryStateTime::IDLE      5670000                       # Time in different power states
system.mem_ctrls_0.memoryStateTime::REF     223600000                       # Time in different power states
system.mem_ctrls_0.memoryStateTime::SREF  19845770250                       # Time in different power states
system.mem_ctrls_0.memoryStateTime::PRE_PDN    175111750                       # Time in different power states
system.mem_ctrls_0.memoryStateTime::ACT     825884250                       # Time in different power states
system.mem_ctrls_0.memoryStateTime::ACT_PDN   5469433750                       # Time in different power states
system.mem_ctrls_1.actEnergy                114118620                       # Energy for activate commands per rank (pJ)
system.mem_ctrls_1.preEnergy                 60655485                       # Energy for precharge commands per rank (pJ)
system.mem_ctrls_1.readEnergy               123764760                       # Energy for read commands per rank (pJ)
system.mem_ctrls_1.writeEnergy                 161820                       # Energy for write commands per rank (pJ)
system.mem_ctrls_1.refreshEnergy         526746480.000000                       # Energy for refresh commands per rank (pJ)
system.mem_ctrls_1.actBackEnergy            455923620                       # Energy for active background per rank (pJ)
system.mem_ctrls_1.preBackEnergy             14358240                       # Energy for precharge background per rank (pJ)
system.mem_ctrls_1.actPowerDownEnergy      2474163090                       # Energy for active power-down per rank (pJ)
system.mem_ctrls_1.prePowerDownEnergy        82313280                       # Energy for precharge power-down per rank (pJ)
system.mem_ctrls_1.selfRefreshEnergy       4770551160                       # Energy for self refresh per rank (pJ)
system.mem_ctrls_1.totalEnergy             8622756555                       # Total energy per rank (pJ)
system.mem_ctrls_1.averagePower            324.829681                       # Core power per rank (mW)
system.mem_ctrls_1.totalIdleTime          25508177000                       # Total Idle time Per DRAM Rank
system.mem_ctrls_1.memoryStateTime::IDLE     11655000                       # Time in different power states
system.mem_ctrls_1.memoryStateTime::REF     222820000                       # Time in different power states
system.mem_ctrls_1.memoryStateTime::SREF  19868093000                       # Time in different power states
system.mem_ctrls_1.memoryStateTime::PRE_PDN    214431000                       # Time in different power states
system.mem_ctrls_1.memoryStateTime::ACT     802386250                       # Time in different power states
system.mem_ctrls_1.memoryStateTime::ACT_PDN   5426084750                       # Time in different power states
system.pwrStateResidencyTicks::UNDEFINED  26545470000                       # Cumulative time (in ticks) in various power states
system.cpu.branchPred.lookups                      69                       # Number of BP lookups
system.cpu.branchPred.condPredicted                69                       # Number of conditional branches predicted
system.cpu.branchPred.condIncorrect                26                       # Number of conditional branches incorrect
system.cpu.branchPred.BTBLookups                   36                       # Number of BTB lookups
system.cpu.branchPred.BTBHits                       0                       # Number of BTB hits
system.cpu.branchPred.BTBCorrect                    0                       # Number of correct BTB predictions (this stat may not work properly.
system.cpu.branchPred.BTBHitPct              0.000000                       # BTB Hit Percentage
system.cpu.branchPred.usedRAS                       0                       # Number of times the RAS was used to get a target.
system.cpu.branchPred.RASInCorrect                  0                       # Number of incorrect RAS predictions.
system.cpu.branchPred.indirectLookups              36                       # Number of indirect predictor lookups.
system.cpu.branchPred.indirectHits                  0                       # Number of indirect target hits.
system.cpu.branchPred.indirectMisses               36                       # Number of indirect misses.
system.cpu.branchPredindirectMispredicted           11                       # Number of mispredicted indirect branches.
system.cpu_voltage_domain.voltage                   1                       # Voltage in Volts
system.cpu_clk_domain.clock                      1000                       # Clock period in ticks
system.cpu.dtb.walker.pwrStateResidencyTicks::UNDEFINED  26545470000                       # Cumulative time (in ticks) in various power states
system.cpu.dtb.rdAccesses                     1024188                       # TLB accesses on read requests
system.cpu.dtb.wrAccesses                        9964                       # TLB accesses on write requests
system.cpu.dtb.rdMisses                        439881                       # TLB misses on read requests
system.cpu.dtb.wrMisses                            18                       # TLB misses on write requests
system.cpu.apic_clk_domain.clock                16000                       # Clock period in ticks
system.cpu.interrupts.pwrStateResidencyTicks::UNDEFINED  26545470000                       # Cumulative time (in ticks) in various power states
system.cpu.itb.walker.pwrStateResidencyTicks::UNDEFINED  26545470000                       # Cumulative time (in ticks) in various power states
system.cpu.itb.rdAccesses                           0                       # TLB accesses on read requests
system.cpu.itb.wrAccesses                     1525356                       # TLB accesses on write requests
system.cpu.itb.rdMisses                             0                       # TLB misses on read requests
system.cpu.itb.wrMisses                            68                       # TLB misses on write requests
system.cpu.workload.numSyscalls                    27                       # Number of system calls
system.cpu.pwrStateResidencyTicks::ON     26545470000                       # Cumulative time (in ticks) in various power states
system.cpu.numCycles                         26545470                       # number of cpu cycles simulated
system.cpu.numWorkItemsStarted                      0                       # number of work items this cpu started
system.cpu.numWorkItemsCompleted                    0                       # number of work items this cpu completed
system.cpu.committedInsts                     5577908                       # Number of instructions committed
system.cpu.committedOps                       8644102                       # Number of ops (including micro ops) committed
system.cpu.discardedOps                       2522759                       # Number of ops (including micro ops) which were discarded before commit
system.cpu.numFetchSuspends                         0                       # Number of times Execute suspended instruction fetching
system.cpu.cpi                               4.759037                       # CPI: cycles per instruction
system.cpu.ipc                               0.210127                       # IPC: instructions per cycle
system.cpu.op_class_0::No_OpClass                1155      0.01%      0.01% # Class of committed instruction
system.cpu.op_class_0::IntAlu                 8109863     93.82%     93.83% # Class of committed instruction
system.cpu.op_class_0::IntMult                     11      0.00%     93.83% # Class of committed instruction
system.cpu.op_class_0::IntDiv                    1083      0.01%     93.85% # Class of committed instruction
system.cpu.op_class_0::FloatAdd                    18      0.00%     93.85% # Class of committed instruction
system.cpu.op_class_0::FloatCmp                     0      0.00%     93.85% # Class of committed instruction
system.cpu.op_class_0::FloatCvt                     0      0.00%     93.85% # Class of committed instruction
system.cpu.op_class_0::FloatMult                    0      0.00%     93.85% # Class of committed instruction
system.cpu.op_class_0::FloatMultAcc                 0      0.00%     93.85% # Class of committed instruction
system.cpu.op_class_0::FloatDiv                     0      0.00%     93.85% # Class of committed instruction
system.cpu.op_class_0::FloatMisc                    0      0.00%     93.85% # Class of committed instruction
system.cpu.op_class_0::FloatSqrt                    0      0.00%     93.85% # Class of committed instruction
system.cpu.op_class_0::SimdAdd                    284      0.00%     93.85% # Class of committed instruction
system.cpu.op_class_0::SimdAddAcc                   0      0.00%     93.85% # Class of committed instruction
system.cpu.op_class_0::SimdAlu                    403      0.00%     93.85% # Class of committed instruction
system.cpu.op_class_0::SimdCmp                      6      0.00%     93.85% # Class of committed instruction
system.cpu.op_class_0::SimdCvt                    664      0.01%     93.86% # Class of committed instruction
system.cpu.op_class_0::SimdMisc                   482      0.01%     93.87% # Class of committed instruction
system.cpu.op_class_0::SimdMult                     0      0.00%     93.87% # Class of committed instruction
system.cpu.op_class_0::SimdMultAcc                  0      0.00%     93.87% # Class of committed instruction
system.cpu.op_class_0::SimdShift                  102      0.00%     93.87% # Class of committed instruction
system.cpu.op_class_0::SimdShiftAcc                 0      0.00%     93.87% # Class of committed instruction
system.cpu.op_class_0::SimdSqrt                     0      0.00%     93.87% # Class of committed instruction
system.cpu.op_class_0::SimdFloatAdd                 0      0.00%     93.87% # Class of committed instruction
system.cpu.op_class_0::SimdFloatAlu                 0      0.00%     93.87% # Class of committed instruction
system.cpu.op_class_0::SimdFloatCmp                 0      0.00%     93.87% # Class of committed instruction
system.cpu.op_class_0::SimdFloatCvt                 0      0.00%     93.87% # Class of committed instruction
system.cpu.op_class_0::SimdFloatDiv                 0      0.00%     93.87% # Class of committed instruction
system.cpu.op_class_0::SimdFloatMisc                0      0.00%     93.87% # Class of committed instruction
system.cpu.op_class_0::SimdFloatMult                0      0.00%     93.87% # Class of committed instruction
system.cpu.op_class_0::SimdFloatMultAcc             0      0.00%     93.87% # Class of committed instruction
system.cpu.op_class_0::SimdFloatSqrt                0      0.00%     93.87% # Class of committed instruction
system.cpu.op_class_0::SimdAes                      0      0.00%     93.87% # Class of committed instruction
system.cpu.op_class_0::SimdAesMix                   0      0.00%     93.87% # Class of committed instruction
system.cpu.op_class_0::SimdSha1Hash                 0      0.00%     93.87% # Class of committed instruction
system.cpu.op_class_0::SimdSha1Hash2                0      0.00%     93.87% # Class of committed instruction
system.cpu.op_class_0::SimdSha256Hash               0      0.00%     93.87% # Class of committed instruction
system.cpu.op_class_0::SimdSha256Hash2              0      0.00%     93.87% # Class of committed instruction
system.cpu.op_class_0::SimdShaSigma2                0      0.00%     93.87% # Class of committed instruction
system.cpu.op_class_0::SimdShaSigma3                0      0.00%     93.87% # Class of committed instruction
system.cpu.op_class_0::MemRead                 519611      6.01%     99.88% # Class of committed instruction
system.cpu.op_class_0::MemWrite                  9422      0.11%     99.99% # Class of committed instruction
system.cpu.op_class_0::FloatMemRead               662      0.01%    100.00% # Class of committed instruction
system.cpu.op_class_0::FloatMemWrite              336      0.00%    100.00% # Class of committed instruction
system.cpu.op_class_0::IprAccess                    0      0.00%    100.00% # Class of committed instruction
system.cpu.op_class_0::InstPrefetch                 0      0.00%    100.00% # Class of committed instruction
system.cpu.op_class_0::total                  8644102                       # Class of committed instruction
system.cpu.tickCycles                        12181519                       # Number of cycles that the object actually ticked
system.cpu.idleCycles                        14363951                       # Total number of cycles that the object has spent stopped
system.cpu.fetch2.int_instructions                 73                       # Number of integer instructions successfully decoded
system.cpu.fetch2.fp_instructions                   0                       # Number of floating point instructions successfully decoded
system.cpu.fetch2.vec_instructions                  0                       # Number of SIMD instructions successfully decoded
system.cpu.fetch2.load_instructions                 0                       # Number of memory load instructions successfully decoded
system.cpu.fetch2.store_instructions                0                       # Number of memory store instructions successfully decoded
system.cpu.dcache.tags.pwrStateResidencyTicks::UNDEFINED  26545470000                       # Cumulative time (in ticks) in various power states
system.cpu.dcache.tags.tagsinuse          1018.321447                       # Cycle average of tags in use
system.cpu.dcache.tags.total_refs             1033430                       # Total number of references to valid blocks.
system.cpu.dcache.tags.sampled_refs            493786                       # Sample count of references to valid blocks.
system.cpu.dcache.tags.avg_refs              2.092870                       # Average number of references to valid blocks.
system.cpu.dcache.tags.warmup_cycle            226000                       # Cycle when the warmup percentage was hit.
system.cpu.dcache.tags.occ_blocks::.cpu.data  1018.321447                       # Average occupied blocks per requestor
system.cpu.dcache.tags.occ_percent::.cpu.data     0.994455                       # Average percentage of cache occupancy
system.cpu.dcache.tags.occ_percent::total     0.994455                       # Average percentage of cache occupancy
system.cpu.dcache.tags.occ_task_id_blocks::1024         1024                       # Occupied blocks per task id
system.cpu.dcache.tags.age_task_id_blocks_1024::0           57                       # Occupied blocks per task id
system.cpu.dcache.tags.age_task_id_blocks_1024::1          908                       # Occupied blocks per task id
system.cpu.dcache.tags.age_task_id_blocks_1024::2           58                       # Occupied blocks per task id
system.cpu.dcache.tags.age_task_id_blocks_1024::4            1                       # Occupied blocks per task id
system.cpu.dcache.tags.occ_task_id_percent::1024            1                       # Percentage of cache occupancy per task id
system.cpu.dcache.tags.tag_accesses           2561250                       # Number of tag accesses
system.cpu.dcache.tags.data_accesses          2561250                       # Number of data accesses
system.cpu.dcache.pwrStateResidencyTicks::UNDEFINED  26545470000                       # Cumulative time (in ticks) in various power states
system.cpu.dcache.ReadReq_hits::.cpu.data       530628                       # number of ReadReq hits
system.cpu.dcache.ReadReq_hits::total          530628                       # number of ReadReq hits
system.cpu.dcache.WriteReq_hits::.cpu.data         9016                       # number of WriteReq hits
system.cpu.dcache.WriteReq_hits::total           9016                       # number of WriteReq hits
system.cpu.dcache.demand_hits::.cpu.data       539644                       # number of demand (read+write) hits
system.cpu.dcache.demand_hits::total           539644                       # number of demand (read+write) hits
system.cpu.dcache.overall_hits::.cpu.data       539644                       # number of overall hits
system.cpu.dcache.overall_hits::total          539644                       # number of overall hits
system.cpu.dcache.ReadReq_misses::.cpu.data       493346                       # number of ReadReq misses
system.cpu.dcache.ReadReq_misses::total        493346                       # number of ReadReq misses
system.cpu.dcache.WriteReq_misses::.cpu.data          742                       # number of WriteReq misses
system.cpu.dcache.WriteReq_misses::total          742                       # number of WriteReq misses
system.cpu.dcache.demand_misses::.cpu.data       494088                       # number of demand (read+write) misses
system.cpu.dcache.demand_misses::total         494088                       # number of demand (read+write) misses
system.cpu.dcache.overall_misses::.cpu.data       494088                       # number of overall misses
system.cpu.dcache.overall_misses::total        494088                       # number of overall misses
system.cpu.dcache.ReadReq_miss_latency::.cpu.data  16250217000                       # number of ReadReq miss cycles
system.cpu.dcache.ReadReq_miss_latency::total  16250217000                       # number of ReadReq miss cycles
system.cpu.dcache.WriteReq_miss_latency::.cpu.data     73649000                       # number of WriteReq miss cycles
system.cpu.dcache.WriteReq_miss_latency::total     73649000                       # number of WriteReq miss cycles
system.cpu.dcache.demand_miss_latency::.cpu.data  16323866000                       # number of demand (read+write) miss cycles
system.cpu.dcache.demand_miss_latency::total  16323866000                       # number of demand (read+write) miss cycles
system.cpu.dcache.overall_miss_latency::.cpu.data  16323866000                       # number of overall miss cycles
system.cpu.dcache.overall_miss_latency::total  16323866000                       # number of overall miss cycles
system.cpu.dcache.ReadReq_accesses::.cpu.data      1023974                       # number of ReadReq accesses(hits+misses)
system.cpu.dcache.ReadReq_accesses::total      1023974                       # number of ReadReq accesses(hits+misses)
system.cpu.dcache.WriteReq_accesses::.cpu.data         9758                       # number of WriteReq accesses(hits+misses)
system.cpu.dcache.WriteReq_accesses::total         9758                       # number of WriteReq accesses(hits+misses)
system.cpu.dcache.demand_accesses::.cpu.data      1033732                       # number of demand (read+write) accesses
system.cpu.dcache.demand_accesses::total      1033732                       # number of demand (read+write) accesses
system.cpu.dcache.overall_accesses::.cpu.data      1033732                       # number of overall (read+write) accesses
system.cpu.dcache.overall_accesses::total      1033732                       # number of overall (read+write) accesses
system.cpu.dcache.ReadReq_miss_rate::.cpu.data     0.481795                       # miss rate for ReadReq accesses
system.cpu.dcache.ReadReq_miss_rate::total     0.481795                       # miss rate for ReadReq accesses
system.cpu.dcache.WriteReq_miss_rate::.cpu.data     0.076040                       # miss rate for WriteReq accesses
system.cpu.dcache.WriteReq_miss_rate::total     0.076040                       # miss rate for WriteReq accesses
system.cpu.dcache.demand_miss_rate::.cpu.data     0.477965                       # miss rate for demand accesses
system.cpu.dcache.demand_miss_rate::total     0.477965                       # miss rate for demand accesses
system.cpu.dcache.overall_miss_rate::.cpu.data     0.477965                       # miss rate for overall accesses
system.cpu.dcache.overall_miss_rate::total     0.477965                       # miss rate for overall accesses
system.cpu.dcache.ReadReq_avg_miss_latency::.cpu.data 32938.783329                       # average ReadReq miss latency
system.cpu.dcache.ReadReq_avg_miss_latency::total 32938.783329                       # average ReadReq miss latency
system.cpu.dcache.WriteReq_avg_miss_latency::.cpu.data 99257.412399                       # average WriteReq miss latency
system.cpu.dcache.WriteReq_avg_miss_latency::total 99257.412399                       # average WriteReq miss latency
system.cpu.dcache.demand_avg_miss_latency::.cpu.data 33038.377779                       # average overall miss latency
system.cpu.dcache.demand_avg_miss_latency::total 33038.377779                       # average overall miss latency
system.cpu.dcache.overall_avg_miss_latency::.cpu.data 33038.377779                       # average overall miss latency
system.cpu.dcache.overall_avg_miss_latency::total 33038.377779                       # average overall miss latency
system.cpu.dcache.blocked_cycles::no_mshrs            0                       # number of cycles access was blocked
system.cpu.dcache.blocked_cycles::no_targets            0                       # number of cycles access was blocked
system.cpu.dcache.blocked::no_mshrs                 0                       # number of cycles access was blocked
system.cpu.dcache.blocked::no_targets               0                       # number of cycles access was blocked
system.cpu.dcache.avg_blocked_cycles::no_mshrs          nan                       # average number of cycles each access was blocked
system.cpu.dcache.avg_blocked_cycles::no_targets          nan                       # average number of cycles each access was blocked
system.cpu.dcache.writebacks::.writebacks          552                       # number of writebacks
system.cpu.dcache.writebacks::total               552                       # number of writebacks
system.cpu.dcache.ReadReq_mshr_hits::.cpu.data           20                       # number of ReadReq MSHR hits
system.cpu.dcache.ReadReq_mshr_hits::total           20                       # number of ReadReq MSHR hits
system.cpu.dcache.WriteReq_mshr_hits::.cpu.data          282                       # number of WriteReq MSHR hits
system.cpu.dcache.WriteReq_mshr_hits::total          282                       # number of WriteReq MSHR hits
system.cpu.dcache.demand_mshr_hits::.cpu.data          302                       # number of demand (read+write) MSHR hits
system.cpu.dcache.demand_mshr_hits::total          302                       # number of demand (read+write) MSHR hits
system.cpu.dcache.overall_mshr_hits::.cpu.data          302                       # number of overall MSHR hits
system.cpu.dcache.overall_mshr_hits::total          302                       # number of overall MSHR hits
system.cpu.dcache.ReadReq_mshr_misses::.cpu.data       493326                       # number of ReadReq MSHR misses
system.cpu.dcache.ReadReq_mshr_misses::total       493326                       # number of ReadReq MSHR misses
system.cpu.dcache.WriteReq_mshr_misses::.cpu.data          460                       # number of WriteReq MSHR misses
system.cpu.dcache.WriteReq_mshr_misses::total          460                       # number of WriteReq MSHR misses
system.cpu.dcache.demand_mshr_misses::.cpu.data       493786                       # number of demand (read+write) MSHR misses
system.cpu.dcache.demand_mshr_misses::total       493786                       # number of demand (read+write) MSHR misses
system.cpu.dcache.overall_mshr_misses::.cpu.data       493786                       # number of overall MSHR misses
system.cpu.dcache.overall_mshr_misses::total       493786                       # number of overall MSHR misses
system.cpu.dcache.ReadReq_mshr_miss_latency::.cpu.data  15261873000                       # number of ReadReq MSHR miss cycles
system.cpu.dcache.ReadReq_mshr_miss_latency::total  15261873000                       # number of ReadReq MSHR miss cycles
system.cpu.dcache.WriteReq_mshr_miss_latency::.cpu.data     47342000                       # number of WriteReq MSHR miss cycles
system.cpu.dcache.WriteReq_mshr_miss_latency::total     47342000                       # number of WriteReq MSHR miss cycles
system.cpu.dcache.demand_mshr_miss_latency::.cpu.data  15309215000                       # number of demand (read+write) MSHR miss cycles
system.cpu.dcache.demand_mshr_miss_latency::total  15309215000                       # number of demand (read+write) MSHR miss cycles
system.cpu.dcache.overall_mshr_miss_latency::.cpu.data  15309215000                       # number of overall MSHR miss cycles
system.cpu.dcache.overall_mshr_miss_latency::total  15309215000                       # number of overall MSHR miss cycles
system.cpu.dcache.ReadReq_mshr_miss_rate::.cpu.data     0.481776                       # mshr miss rate for ReadReq accesses
system.cpu.dcache.ReadReq_mshr_miss_rate::total     0.481776                       # mshr miss rate for ReadReq accesses
system.cpu.dcache.WriteReq_mshr_miss_rate::.cpu.data     0.047141                       # mshr miss rate for WriteReq accesses
system.cpu.dcache.WriteReq_mshr_miss_rate::total     0.047141                       # mshr miss rate for WriteReq accesses
system.cpu.dcache.demand_mshr_miss_rate::.cpu.data     0.477673                       # mshr miss rate for demand accesses
system.cpu.dcache.demand_mshr_miss_rate::total     0.477673                       # mshr miss rate for demand accesses
system.cpu.dcache.overall_mshr_miss_rate::.cpu.data     0.477673                       # mshr miss rate for overall accesses
system.cpu.dcache.overall_mshr_miss_rate::total     0.477673                       # mshr miss rate for overall accesses
system.cpu.dcache.ReadReq_avg_mshr_miss_latency::.cpu.data 30936.688924                       # average ReadReq mshr miss latency
system.cpu.dcache.ReadReq_avg_mshr_miss_latency::total 30936.688924                       # average ReadReq mshr miss latency
system.cpu.dcache.WriteReq_avg_mshr_miss_latency::.cpu.data 102917.391304                       # average WriteReq mshr miss latency
system.cpu.dcache.WriteReq_avg_mshr_miss_latency::total 102917.391304                       # average WriteReq mshr miss latency
system.cpu.dcache.demand_avg_mshr_miss_latency::.cpu.data 31003.744537                       # average overall mshr miss latency
system.cpu.dcache.demand_avg_mshr_miss_latency::total 31003.744537                       # average overall mshr miss latency
system.cpu.dcache.overall_avg_mshr_miss_latency::.cpu.data 31003.744537                       # average overall mshr miss latency
system.cpu.dcache.overall_avg_mshr_miss_latency::total 31003.744537                       # average overall mshr miss latency
system.cpu.dcache.replacements                 492762                       # number of replacements
system.cpu.dtb_walker_cache.tags.pwrStateResidencyTicks::UNDEFINED  26545470000                       # Cumulative time (in ticks) in various power states
system.cpu.dtb_walker_cache.tags.tagsinuse            0                       # Cycle average of tags in use
system.cpu.dtb_walker_cache.tags.total_refs            0                       # Total number of references to valid blocks.
system.cpu.dtb_walker_cache.tags.sampled_refs            0                       # Sample count of references to valid blocks.
system.cpu.dtb_walker_cache.tags.avg_refs          nan                       # Average number of references to valid blocks.
system.cpu.dtb_walker_cache.tags.warmup_cycle            0                       # Cycle when the warmup percentage was hit.
system.cpu.dtb_walker_cache.tags.tag_accesses            0                       # Number of tag accesses
system.cpu.dtb_walker_cache.tags.data_accesses            0                       # Number of data accesses
system.cpu.dtb_walker_cache.pwrStateResidencyTicks::UNDEFINED  26545470000                       # Cumulative time (in ticks) in various power states
system.cpu.dtb_walker_cache.blocked_cycles::no_mshrs            0                       # number of cycles access was blocked
system.cpu.dtb_walker_cache.blocked_cycles::no_targets            0                       # number of cycles access was blocked
system.cpu.dtb_walker_cache.blocked::no_mshrs            0                       # number of cycles access was blocked
system.cpu.dtb_walker_cache.blocked::no_targets            0                       # number of cycles access was blocked
system.cpu.dtb_walker_cache.avg_blocked_cycles::no_mshrs          nan                       # average number of cycles each access was blocked
system.cpu.dtb_walker_cache.avg_blocked_cycles::no_targets          nan                       # average number of cycles each access was blocked
system.cpu.dtb_walker_cache.replacements            0                       # number of replacements
system.cpu.icache.tags.pwrStateResidencyTicks::UNDEFINED  26545470000                       # Cumulative time (in ticks) in various power states
system.cpu.icache.tags.tagsinuse           713.094750                       # Cycle average of tags in use
system.cpu.icache.tags.total_refs             1525356                       # Total number of references to valid blocks.
system.cpu.icache.tags.sampled_refs               863                       # Sample count of references to valid blocks.
system.cpu.icache.tags.avg_refs           1767.504056                       # Average number of references to valid blocks.
system.cpu.icache.tags.warmup_cycle            108000                       # Cycle when the warmup percentage was hit.
system.cpu.icache.tags.occ_blocks::.cpu.inst   713.094750                       # Average occupied blocks per requestor
system.cpu.icache.tags.occ_percent::.cpu.inst     0.696382                       # Average percentage of cache occupancy
system.cpu.icache.tags.occ_percent::total     0.696382                       # Average percentage of cache occupancy
system.cpu.icache.tags.occ_task_id_blocks::1024          745                       # Occupied blocks per task id
system.cpu.icache.tags.age_task_id_blocks_1024::0           48                       # Occupied blocks per task id
system.cpu.icache.tags.age_task_id_blocks_1024::1            4                       # Occupied blocks per task id
system.cpu.icache.tags.age_task_id_blocks_1024::4          693                       # Occupied blocks per task id
system.cpu.icache.tags.occ_task_id_percent::1024     0.727539                       # Percentage of cache occupancy per task id
system.cpu.icache.tags.tag_accesses           3051575                       # Number of tag accesses
system.cpu.icache.tags.data_accesses          3051575                       # Number of data accesses
system.cpu.icache.pwrStateResidencyTicks::UNDEFINED  26545470000                       # Cumulative time (in ticks) in various power states
system.cpu.icache.ReadReq_hits::.cpu.inst      1524493                       # number of ReadReq hits
system.cpu.icache.ReadReq_hits::total         1524493                       # number of ReadReq hits
system.cpu.icache.demand_hits::.cpu.inst      1524493                       # number of demand (read+write) hits
system.cpu.icache.demand_hits::total          1524493                       # number of demand (read+write) hits
system.cpu.icache.overall_hits::.cpu.inst      1524493                       # number of overall hits
system.cpu.icache.overall_hits::total         1524493                       # number of overall hits
system.cpu.icache.ReadReq_misses::.cpu.inst          863                       # number of ReadReq misses
system.cpu.icache.ReadReq_misses::total           863                       # number of ReadReq misses
system.cpu.icache.demand_misses::.cpu.inst          863                       # number of demand (read+write) misses
system.cpu.icache.demand_misses::total            863                       # number of demand (read+write) misses
system.cpu.icache.overall_misses::.cpu.inst          863                       # number of overall misses
system.cpu.icache.overall_misses::total           863                       # number of overall misses
system.cpu.icache.ReadReq_miss_latency::.cpu.inst     92341000                       # number of ReadReq miss cycles
system.cpu.icache.ReadReq_miss_latency::total     92341000                       # number of ReadReq miss cycles
system.cpu.icache.demand_miss_latency::.cpu.inst     92341000                       # number of demand (read+write) miss cycles
system.cpu.icache.demand_miss_latency::total     92341000                       # number of demand (read+write) miss cycles
system.cpu.icache.overall_miss_latency::.cpu.inst     92341000                       # number of overall miss cycles
system.cpu.icache.overall_miss_latency::total     92341000                       # number of overall miss cycles
system.cpu.icache.ReadReq_accesses::.cpu.inst      1525356                       # number of ReadReq accesses(hits+misses)
system.cpu.icache.ReadReq_accesses::total      1525356                       # number of ReadReq accesses(hits+misses)
system.cpu.icache.demand_accesses::.cpu.inst      1525356                       # number of demand (read+write) accesses
system.cpu.icache.demand_accesses::total      1525356                       # number of demand (read+write) accesses
system.cpu.icache.overall_accesses::.cpu.inst      1525356                       # number of overall (read+write) accesses
system.cpu.icache.overall_accesses::total      1525356                       # number of overall (read+write) accesses
system.cpu.icache.ReadReq_miss_rate::.cpu.inst     0.000566                       # miss rate for ReadReq accesses
system.cpu.icache.ReadReq_miss_rate::total     0.000566                       # miss rate for ReadReq accesses
system.cpu.icache.demand_miss_rate::.cpu.inst     0.000566                       # miss rate for demand accesses
system.cpu.icache.demand_miss_rate::total     0.000566                       # miss rate for demand accesses
system.cpu.icache.overall_miss_rate::.cpu.inst     0.000566                       # miss rate for overall accesses
system.cpu.icache.overall_miss_rate::total     0.000566                       # miss rate for overall accesses
system.cpu.icache.ReadReq_avg_miss_latency::.cpu.inst       107000                       # average ReadReq miss latency
system.cpu.icache.ReadReq_avg_miss_latency::total       107000                       # average ReadReq miss latency
system.cpu.icache.demand_avg_miss_latency::.cpu.inst       107000                       # average overall miss latency
system.cpu.icache.demand_avg_miss_latency::total       107000                       # average overall miss latency
system.cpu.icache.overall_avg_miss_latency::.cpu.inst       107000                       # average overall miss latency
system.cpu.icache.overall_avg_miss_latency::total       107000                       # average overall miss latency
system.cpu.icache.blocked_cycles::no_mshrs            0                       # number of cycles access was blocked
system.cpu.icache.blocked_cycles::no_targets            0                       # number of cycles access was blocked
system.cpu.icache.blocked::no_mshrs                 0                       # number of cycles access was blocked
system.cpu.icache.blocked::no_targets               0                       # number of cycles access was blocked
system.cpu.icache.avg_blocked_cycles::no_mshrs          nan                       # average number of cycles each access was blocked
system.cpu.icache.avg_blocked_cycles::no_targets          nan                       # average number of cycles each access was blocked
system.cpu.icache.writebacks::.writebacks          118                       # number of writebacks
system.cpu.icache.writebacks::total               118                       # number of writebacks
system.cpu.icache.ReadReq_mshr_misses::.cpu.inst          863                       # number of ReadReq MSHR misses
system.cpu.icache.ReadReq_mshr_misses::total          863                       # number of ReadReq MSHR misses
system.cpu.icache.demand_mshr_misses::.cpu.inst          863                       # number of demand (read+write) MSHR misses
system.cpu.icache.demand_mshr_misses::total          863                       # number of demand (read+write) MSHR misses
system.cpu.icache.overall_mshr_misses::.cpu.inst          863                       # number of overall MSHR misses
system.cpu.icache.overall_mshr_misses::total          863                       # number of overall MSHR misses
system.cpu.icache.ReadReq_mshr_miss_latency::.cpu.inst     90615000                       # number of ReadReq MSHR miss cycles
system.cpu.icache.ReadReq_mshr_miss_latency::total     90615000                       # number of ReadReq MSHR miss cycles
system.cpu.icache.demand_mshr_miss_latency::.cpu.inst     90615000                       # number of demand (read+write) MSHR miss cycles
system.cpu.icache.demand_mshr_miss_latency::total     90615000                       # number of demand (read+write) MSHR miss cycles
system.cpu.icache.overall_mshr_miss_latency::.cpu.inst     90615000                       # number of overall MSHR miss cycles
system.cpu.icache.overall_mshr_miss_latency::total     90615000                       # number of overall MSHR miss cycles
system.cpu.icache.ReadReq_mshr_miss_rate::.cpu.inst     0.000566                       # mshr miss rate for ReadReq accesses
system.cpu.icache.ReadReq_mshr_miss_rate::total     0.000566                       # mshr miss rate for ReadReq accesses
system.cpu.icache.demand_mshr_miss_rate::.cpu.inst     0.000566                       # mshr miss rate for demand accesses
system.cpu.icache.demand_mshr_miss_rate::total     0.000566                       # mshr miss rate for demand accesses
system.cpu.icache.overall_mshr_miss_rate::.cpu.inst     0.000566                       # mshr miss rate for overall accesses
system.cpu.icache.overall_mshr_miss_rate::total     0.000566                       # mshr miss rate for overall accesses
system.cpu.icache.ReadReq_avg_mshr_miss_latency::.cpu.inst       105000                       # average ReadReq mshr miss latency
system.cpu.icache.ReadReq_avg_mshr_miss_latency::total       105000                       # average ReadReq mshr miss latency
system.cpu.icache.demand_avg_mshr_miss_latency::.cpu.inst       105000                       # average overall mshr miss latency
system.cpu.icache.demand_avg_mshr_miss_latency::total       105000                       # average overall mshr miss latency
system.cpu.icache.overall_avg_mshr_miss_latency::.cpu.inst       105000                       # average overall mshr miss latency
system.cpu.icache.overall_avg_mshr_miss_latency::total       105000                       # average overall mshr miss latency
system.cpu.icache.replacements                    118                       # number of replacements
system.cpu.itb_walker_cache.tags.pwrStateResidencyTicks::UNDEFINED  26545470000                       # Cumulative time (in ticks) in various power states
system.cpu.itb_walker_cache.tags.tagsinuse            0                       # Cycle average of tags in use
system.cpu.itb_walker_cache.tags.total_refs            0                       # Total number of references to valid blocks.
system.cpu.itb_walker_cache.tags.sampled_refs            0                       # Sample count of references to valid blocks.
system.cpu.itb_walker_cache.tags.avg_refs          nan                       # Average number of references to valid blocks.
system.cpu.itb_walker_cache.tags.warmup_cycle            0                       # Cycle when the warmup percentage was hit.
system.cpu.itb_walker_cache.tags.tag_accesses            0                       # Number of tag accesses
system.cpu.itb_walker_cache.tags.data_accesses            0                       # Number of data accesses
system.cpu.itb_walker_cache.pwrStateResidencyTicks::UNDEFINED  26545470000                       # Cumulative time (in ticks) in various power states
system.cpu.itb_walker_cache.blocked_cycles::no_mshrs            0                       # number of cycles access was blocked
system.cpu.itb_walker_cache.blocked_cycles::no_targets            0                       # number of cycles access was blocked
system.cpu.itb_walker_cache.blocked::no_mshrs            0                       # number of cycles access was blocked
system.cpu.itb_walker_cache.blocked::no_targets            0                       # number of cycles access was blocked
system.cpu.itb_walker_cache.avg_blocked_cycles::no_mshrs          nan                       # average number of cycles each access was blocked
system.cpu.itb_walker_cache.avg_blocked_cycles::no_targets          nan                       # average number of cycles each access was blocked
system.cpu.itb_walker_cache.replacements            0                       # number of replacements
system.l2.tags.pwrStateResidencyTicks::UNDEFINED  26545470000                       # Cumulative time (in ticks) in various power states
system.l2.tags.tagsinuse                 29423.477988                       # Cycle average of tags in use
system.l2.tags.total_refs                      987526                       # Total number of references to valid blocks.
system.l2.tags.sampled_refs                     35122                       # Sample count of references to valid blocks.
system.l2.tags.avg_refs                     28.117021                       # Average number of references to valid blocks.
system.l2.tags.warmup_cycle                     87000                       # Cycle when the warmup percentage was hit.
system.l2.tags.occ_blocks::.writebacks       0.004794                       # Average occupied blocks per requestor
system.l2.tags.occ_blocks::.cpu.inst       148.971280                       # Average occupied blocks per requestor
system.l2.tags.occ_blocks::.cpu.data     29274.501913                       # Average occupied blocks per requestor
system.l2.tags.occ_percent::.writebacks      0.000000                       # Average percentage of cache occupancy
system.l2.tags.occ_percent::.cpu.inst        0.004546                       # Average percentage of cache occupancy
system.l2.tags.occ_percent::.cpu.data        0.893387                       # Average percentage of cache occupancy
system.l2.tags.occ_percent::total            0.897933                       # Average percentage of cache occupancy
system.l2.tags.occ_task_id_blocks::1024         32768                       # Occupied blocks per task id
system.l2.tags.age_task_id_blocks_1024::0          126                       # Occupied blocks per task id
system.l2.tags.age_task_id_blocks_1024::1            7                       # Occupied blocks per task id
system.l2.tags.age_task_id_blocks_1024::4        32635                       # Occupied blocks per task id
system.l2.tags.occ_task_id_percent::1024            1                       # Percentage of cache occupancy per task id
system.l2.tags.tag_accesses                   7935330                       # Number of tag accesses
system.l2.tags.data_accesses                  7935330                       # Number of data accesses
system.l2.pwrStateResidencyTicks::UNDEFINED  26545470000                       # Cumulative time (in ticks) in various power states
system.l2.WritebackDirty_hits::.writebacks          552                       # number of WritebackDirty hits
system.l2.WritebackDirty_hits::total              552                       # number of WritebackDirty hits
system.l2.WritebackClean_hits::.writebacks          118                       # number of WritebackClean hits
system.l2.WritebackClean_hits::total              118                       # number of WritebackClean hits
system.l2.ReadExReq_hits::.cpu.data                15                       # number of ReadExReq hits
system.l2.ReadExReq_hits::total                    15                       # number of ReadExReq hits
system.l2.ReadCleanReq_hits::.cpu.inst             10                       # number of ReadCleanReq hits
system.l2.ReadCleanReq_hits::total                 10                       # number of ReadCleanReq hits
system.l2.ReadSharedReq_hits::.cpu.data        459525                       # number of ReadSharedReq hits
system.l2.ReadSharedReq_hits::total            459525                       # number of ReadSharedReq hits
system.l2.demand_hits::.cpu.inst                   10                       # number of demand (read+write) hits
system.l2.demand_hits::.cpu.data               459540                       # number of demand (read+write) hits
system.l2.demand_hits::total                   459550                       # number of demand (read+write) hits
system.l2.overall_hits::.cpu.inst                  10                       # number of overall hits
system.l2.overall_hits::.cpu.data              459540                       # number of overall hits
system.l2.overall_hits::total                  459550                       # number of overall hits
system.l2.ReadExReq_misses::.cpu.data             445                       # number of ReadExReq misses
system.l2.ReadExReq_misses::total                 445                       # number of ReadExReq misses
system.l2.ReadCleanReq_misses::.cpu.inst          853                       # number of ReadCleanReq misses
system.l2.ReadCleanReq_misses::total              853                       # number of ReadCleanReq misses
system.l2.ReadSharedReq_misses::.cpu.data        33801                       # number of ReadSharedReq misses
system.l2.ReadSharedReq_misses::total           33801                       # number of ReadSharedReq misses
system.l2.demand_misses::.cpu.inst                853                       # number of demand (read+write) misses
[...]
system.l2.ReadCleanReq_accesses::total            863                       # number of ReadCleanReq accesses(hits+misses)
system.l2.ReadSharedReq_accesses::.cpu.data       493326                       # number of ReadSharedReq accesses(hits+misses)
system.l2.ReadSharedReq_accesses::total        493326                       # number of ReadSharedReq accesses(hits+misses)
system.l2.demand_accesses::.cpu.inst              863                       # number of demand (read+write) accesses
system.l2.demand_accesses::.cpu.data           493786                       # number of demand (read+write) accesses
system.l2.demand_accesses::total               494649                       # number of demand (read+write) accesses
system.l2.overall_accesses::.cpu.inst             863                       # number of overall (read+write) accesses
system.l2.overall_accesses::.cpu.data          493786                       # number of overall (read+write) accesses
system.l2.overall_accesses::total              494649                       # number of overall (read+write) accesses
system.l2.ReadExReq_miss_rate::.cpu.data     0.967391                       # miss rate for ReadExReq accesses
system.l2.ReadExReq_miss_rate::total         0.967391                       # miss rate for ReadExReq accesses
system.l2.ReadCleanReq_miss_rate::.cpu.inst     0.988413                       # miss rate for ReadCleanReq accesses
system.l2.ReadCleanReq_miss_rate::total      0.988413                       # miss rate for ReadCleanReq accesses
system.l2.ReadSharedReq_miss_rate::.cpu.data     0.068517                       # miss rate for ReadSharedReq accesses
system.l2.ReadSharedReq_miss_rate::total     0.068517                       # miss rate for ReadSharedReq accesses
system.l2.demand_miss_rate::.cpu.inst        0.988413                       # miss rate for demand accesses
system.l2.demand_miss_rate::.cpu.data        0.069354                       # miss rate for demand accesses
system.l2.demand_miss_rate::total            0.070957                       # miss rate for demand accesses
system.l2.overall_miss_rate::.cpu.inst       0.988413                       # miss rate for overall accesses
system.l2.overall_miss_rate::.cpu.data       0.069354                       # miss rate for overall accesses
system.l2.overall_miss_rate::total           0.070957                       # miss rate for overall accesses
system.l2.ReadExReq_avg_miss_latency::.cpu.data 102559.550562                       # average ReadExReq miss latency
system.l2.ReadExReq_avg_miss_latency::total 102559.550562                       # average ReadExReq miss latency
system.l2.ReadCleanReq_avg_miss_latency::.cpu.inst 102943.728019                       # average ReadCleanReq miss latency
system.l2.ReadCleanReq_avg_miss_latency::total 102943.728019                       # average ReadCleanReq miss latency
system.l2.ReadSharedReq_avg_miss_latency::.cpu.data 122240.910032                       # average ReadSharedReq miss latency
system.l2.ReadSharedReq_avg_miss_latency::total 122240.910032                       # average ReadSharedReq miss latency
system.l2.demand_avg_miss_latency::.cpu.inst 102943.728019                       # average overall miss latency
system.l2.demand_avg_miss_latency::.cpu.data 121985.166151                       # average overall miss latency
system.l2.demand_avg_miss_latency::total 121522.408046                       # average overall miss latency
system.l2.overall_avg_miss_latency::.cpu.inst 102943.728019                       # average overall miss latency
system.l2.overall_avg_miss_latency::.cpu.data 121985.166151                       # average overall miss latency
system.l2.overall_avg_miss_latency::total 121522.408046                       # average overall miss latency
system.l2.blocked_cycles::no_mshrs                  0                       # number of cycles access was blocked
system.l2.blocked_cycles::no_targets                0                       # number of cycles access was blocked
system.l2.blocked::no_mshrs                         0                       # number of cycles access was blocked
system.l2.blocked::no_targets                       0                       # number of cycles access was blocked
system.l2.avg_blocked_cycles::no_mshrs            nan                       # average number of cycles each access was blocked
system.l2.avg_blocked_cycles::no_targets          nan                       # average number of cycles each access was blocked
system.l2.writebacks::.writebacks                 473                       # number of writebacks
system.l2.writebacks::total                       473                       # number of writebacks
system.l2.ReadExReq_mshr_misses::.cpu.data          445                       # number of ReadExReq MSHR misses
system.l2.ReadExReq_mshr_misses::total            445                       # number of ReadExReq MSHR misses
system.l2.ReadCleanReq_mshr_misses::.cpu.inst          853                       # number of ReadCleanReq MSHR misses
system.l2.ReadCleanReq_mshr_misses::total          853                       # number of ReadCleanReq MSHR misses
system.l2.ReadSharedReq_mshr_misses::.cpu.data        33801                       # number of ReadSharedReq MSHR misses
system.l2.ReadSharedReq_mshr_misses::total        33801                       # number of ReadSharedReq MSHR misses
system.l2.demand_mshr_misses::.cpu.inst           853                       # number of demand (read+write) MSHR misses
system.l2.demand_mshr_misses::.cpu.data         34246                       # number of demand (read+write) MSHR misses
system.l2.demand_mshr_misses::total             35099                       # number of demand (read+write) MSHR misses
system.l2.overall_mshr_misses::.cpu.inst          853                       # number of overall MSHR misses
system.l2.overall_mshr_misses::.cpu.data        34246                       # number of overall MSHR misses
system.l2.overall_mshr_misses::total            35099                       # number of overall MSHR misses
system.l2.ReadExReq_mshr_miss_latency::.cpu.data     36739000                       # number of ReadExReq MSHR miss cycles
system.l2.ReadExReq_mshr_miss_latency::total     36739000                       # number of ReadExReq MSHR miss cycles
system.l2.ReadCleanReq_mshr_miss_latency::.cpu.inst     70751000                       # number of ReadCleanReq MSHR miss cycles
system.l2.ReadCleanReq_mshr_miss_latency::total     70751000                       # number of ReadCleanReq MSHR miss cycles
system.l2.ReadSharedReq_mshr_miss_latency::.cpu.data   3455845000                       # number of ReadSharedReq MSHR miss cycles
system.l2.ReadSharedReq_mshr_miss_latency::total   3455845000                       # number of ReadSharedReq MSHR miss cycles
system.l2.demand_mshr_miss_latency::.cpu.inst     70751000                       # number of demand (read+write) MSHR miss cycles
system.l2.demand_mshr_miss_latency::.cpu.data   3492584000                       # number of demand (read+write) MSHR miss cycles
system.l2.demand_mshr_miss_latency::total   3563335000                       # number of demand (read+write) MSHR miss cycles
system.l2.overall_mshr_miss_latency::.cpu.inst     70751000                       # number of overall MSHR miss cycles
system.l2.overall_mshr_miss_latency::.cpu.data   3492584000                       # number of overall MSHR miss cycles
system.l2.overall_mshr_miss_latency::total   3563335000                       # number of overall MSHR miss cycles
system.l2.ReadExReq_mshr_miss_rate::.cpu.data     0.967391                       # mshr miss rate for ReadExReq accesses
system.l2.ReadExReq_mshr_miss_rate::total     0.967391                       # mshr miss rate for ReadExReq accesses
system.l2.ReadCleanReq_mshr_miss_rate::.cpu.inst     0.988413                       # mshr miss rate for ReadCleanReq accesses
system.l2.ReadCleanReq_mshr_miss_rate::total     0.988413                       # mshr miss rate for ReadCleanReq accesses
system.l2.ReadSharedReq_mshr_miss_rate::.cpu.data     0.068517                       # mshr miss rate for ReadSharedReq accesses
system.l2.ReadSharedReq_mshr_miss_rate::total     0.068517                       # mshr miss rate for ReadSharedReq accesses
system.l2.demand_mshr_miss_rate::.cpu.inst     0.988413                       # mshr miss rate for demand accesses
system.l2.demand_mshr_miss_rate::.cpu.data     0.069354                       # mshr miss rate for demand accesses
system.l2.demand_mshr_miss_rate::total       0.070957                       # mshr miss rate for demand accesses
system.l2.overall_mshr_miss_rate::.cpu.inst     0.988413                       # mshr miss rate for overall accesses
system.l2.overall_mshr_miss_rate::.cpu.data     0.069354                       # mshr miss rate for overall accesses
system.l2.overall_mshr_miss_rate::total      0.070957                       # mshr miss rate for overall accesses
system.l2.ReadExReq_avg_mshr_miss_latency::.cpu.data 82559.550562                       # average ReadExReq mshr miss latency
system.l2.ReadExReq_avg_mshr_miss_latency::total 82559.550562                       # average ReadExReq mshr miss latency
system.l2.ReadCleanReq_avg_mshr_miss_latency::.cpu.inst 82943.728019                       # average ReadCleanReq mshr miss latency
system.l2.ReadCleanReq_avg_mshr_miss_latency::total 82943.728019                       # average ReadCleanReq mshr miss latency
system.l2.ReadSharedReq_avg_mshr_miss_latency::.cpu.data 102240.910032                       # average ReadSharedReq mshr miss latency
system.l2.ReadSharedReq_avg_mshr_miss_latency::total 102240.910032                       # average ReadSharedReq mshr miss latency
system.l2.demand_avg_mshr_miss_latency::.cpu.inst 82943.728019                       # average overall mshr miss latency
system.l2.demand_avg_mshr_miss_latency::.cpu.data 101985.166151                       # average overall mshr miss latency
system.l2.demand_avg_mshr_miss_latency::total 101522.408046                       # average overall mshr miss latency
system.l2.overall_avg_mshr_miss_latency::.cpu.inst 82943.728019                       # average overall mshr miss latency
system.l2.overall_avg_mshr_miss_latency::.cpu.data 101985.166151                       # average overall mshr miss latency
system.l2.overall_avg_mshr_miss_latency::total 101522.408046                       # average overall mshr miss latency
system.l2.replacements                           2354                       # number of replacements
system.membus.snoop_filter.tot_requests         36736                       # Total number of requests made to the snoop filter.
system.membus.snoop_filter.hit_single_requests         1638                       # Number of requests hitting in the snoop filter with a single holder of the requested data.
system.membus.snoop_filter.hit_multi_requests            0                       # Number of requests hitting in the snoop filter with multiple (>1) holders of the requested data.
system.membus.snoop_filter.tot_snoops               0                       # Total number of snoops made to the snoop filter.
system.membus.snoop_filter.hit_single_snoops            0                       # Number of snoops hitting in the snoop filter with a single holder of the requested data.
system.membus.snoop_filter.hit_multi_snoops            0                       # Number of snoops hitting in the snoop filter with multiple (>1) holders of the requested data.
system.membus.pwrStateResidencyTicks::UNDEFINED  26545470000                       # Cumulative time (in ticks) in various power states
system.membus.trans_dist::ReadResp              34654                       # Transaction distribution
system.membus.trans_dist::WritebackDirty          473                       # Transaction distribution
system.membus.trans_dist::CleanEvict             1164                       # Transaction distribution
system.membus.trans_dist::ReadExReq               445                       # Transaction distribution
system.membus.trans_dist::ReadExResp              445                       # Transaction distribution
system.membus.trans_dist::ReadSharedReq         34654                       # Transaction distribution
system.membus.pkt_count_system.l2.mem_side::system.mem_ctrls.port        71835                       # Packet count per connected master and slave (bytes)
system.membus.pkt_count_system.l2.mem_side::total        71835                       # Packet count per connected master and slave (bytes)
system.membus.pkt_count::total                  71835                       # Packet count per connected master and slave (bytes)
system.membus.pkt_size_system.l2.mem_side::system.mem_ctrls.port      2276608                       # Cumulative packet size per connected master and slave (bytes)
system.membus.pkt_size_system.l2.mem_side::total      2276608                       # Cumulative packet size per connected master and slave (bytes)
system.membus.pkt_size::total                 2276608                       # Cumulative packet size per connected master and slave (bytes)
system.membus.snoops                                0                       # Total snoops (count)
system.membus.snoopTraffic                          0                       # Total snoop traffic (bytes)
system.membus.snoop_fanout::samples             35099                       # Request fanout histogram
system.membus.snoop_fanout::mean                    0                       # Request fanout histogram
system.membus.snoop_fanout::stdev                   0                       # Request fanout histogram
system.membus.snoop_fanout::underflows              0      0.00%      0.00% # Request fanout histogram
system.membus.snoop_fanout::0                   35099    100.00%    100.00% # Request fanout histogram
system.membus.snoop_fanout::1                       0      0.00%    100.00% # Request fanout histogram
system.membus.snoop_fanout::overflows               0      0.00%    100.00% # Request fanout histogram
system.membus.snoop_fanout::min_value               0                       # Request fanout histogram
system.membus.snoop_fanout::max_value               0                       # Request fanout histogram
system.membus.snoop_fanout::total               35099                       # Request fanout histogram
system.membus.reqLayer2.occupancy            38628000                       # Layer occupancy (ticks)
system.membus.reqLayer2.utilization               0.1                       # Layer utilization (%)
system.membus.respLayer1.occupancy          197125250                       # Layer occupancy (ticks)
system.membus.respLayer1.utilization              0.7                       # Layer utilization (%)
system.tol2bus.snoop_filter.tot_requests       987529                       # Total number of requests made to the snoop filter.
system.tol2bus.snoop_filter.hit_single_requests       492881                       # Number of requests hitting in the snoop filter with a single holder of the requested data.
system.tol2bus.snoop_filter.hit_multi_requests            3                       # Number of requests hitting in the snoop filter with multiple (>1) holders of the requested data.
system.tol2bus.snoop_filter.tot_snoops            717                       # Total number of snoops made to the snoop filter.
system.tol2bus.snoop_filter.hit_single_snoops          717                       # Number of snoops hitting in the snoop filter with a single holder of the requested data.
system.tol2bus.snoop_filter.hit_multi_snoops            0                       # Number of snoops hitting in the snoop filter with multiple (>1) holders of the requested data.
system.tol2bus.pwrStateResidencyTicks::UNDEFINED  26545470000                       # Cumulative time (in ticks) in various power states
system.tol2bus.trans_dist::ReadResp            494189                       # Transaction distribution
system.tol2bus.trans_dist::WritebackDirty         1025                       # Transaction distribution
system.tol2bus.trans_dist::WritebackClean          118                       # Transaction distribution
system.tol2bus.trans_dist::CleanEvict          494091                       # Transaction distribution
system.tol2bus.trans_dist::ReadExReq              460                       # Transaction distribution
system.tol2bus.trans_dist::ReadExResp             460                       # Transaction distribution
system.tol2bus.trans_dist::ReadCleanReq           863                       # Transaction distribution
system.tol2bus.trans_dist::ReadSharedReq       493326                       # Transaction distribution
system.tol2bus.pkt_count_system.cpu.icache.mem_side::system.l2.cpu_side         1844                       # Packet count per connected master and slave (bytes)
system.tol2bus.pkt_count_system.cpu.dcache.mem_side::system.l2.cpu_side      1480334                       # Packet count per connected master and slave (bytes)
system.tol2bus.pkt_count::total               1482178                       # Packet count per connected master and slave (bytes)
system.tol2bus.pkt_size_system.cpu.icache.mem_side::system.l2.cpu_side        62784                       # Cumulative packet size per connected master and slave (bytes)
system.tol2bus.pkt_size_system.cpu.dcache.mem_side::system.l2.cpu_side     31637632                       # Cumulative packet size per connected master and slave (bytes)
system.tol2bus.pkt_size::total               31700416                       # Cumulative packet size per connected master and slave (bytes)
system.tol2bus.snoops                            2354                       # Total snoops (count)
system.tol2bus.snoopTraffic                     30272                       # Total snoop traffic (bytes)
system.tol2bus.snoop_fanout::samples           497003                       # Request fanout histogram
system.tol2bus.snoop_fanout::mean            0.001451                       # Request fanout histogram
system.tol2bus.snoop_fanout::stdev           0.038060                       # Request fanout histogram
system.tol2bus.snoop_fanout::underflows             0      0.00%      0.00% # Request fanout histogram
system.tol2bus.snoop_fanout::0                 496282     99.85%     99.85% # Request fanout histogram
system.tol2bus.snoop_fanout::1                    721      0.15%    100.00% # Request fanout histogram
system.tol2bus.snoop_fanout::2                      0      0.00%    100.00% # Request fanout histogram
system.tol2bus.snoop_fanout::3                      0      0.00%    100.00% # Request fanout histogram
system.tol2bus.snoop_fanout::4                      0      0.00%    100.00% # Request fanout histogram
system.tol2bus.snoop_fanout::overflows              0      0.00%    100.00% # Request fanout histogram
system.tol2bus.snoop_fanout::min_value              0                       # Request fanout histogram
system.tol2bus.snoop_fanout::max_value              1                       # Request fanout histogram
system.tol2bus.snoop_fanout::total             497003                       # Request fanout histogram
system.tol2bus.reqLayer0.occupancy          988869000                       # Layer occupancy (ticks)
system.tol2bus.reqLayer0.utilization              3.7                       # Layer utilization (%)
system.tol2bus.respLayer0.occupancy           2589000                       # Layer occupancy (ticks)
system.tol2bus.respLayer0.utilization             0.0                       # Layer utilization (%)
system.tol2bus.respLayer1.occupancy        1481358000                       # Layer occupancy (ticks)
system.tol2bus.respLayer1.utilization             5.6                       # Layer utilization (%)

---------- End Simulation Statistics   ----------
