
---------- Begin Simulation Statistics ----------
sim_seconds                                  0.017339                       # Number of seconds simulated
sim_ticks                                 17339162582                       # Number of ticks simulated
final_tick                                17339162582                       # Number of ticks from beginning of simulation (restored from checkpoints and never reset)
sim_freq                                 1000000000000                       # Frequency of simulated ticks
host_inst_rate                                  33661                       # Simulator instruction rate (inst/s)
host_op_rate                                    55329                       # Simulator op (including micro ops) rate (op/s)
host_tick_rate                               47108739                       # Simulator tick rate (ticks/s)
host_mem_usage                                 677616                       # Number of bytes of host memory used
host_seconds                                   368.07                       # Real time elapsed on the host
sim_insts                                    12389443                       # Number of instructions simulated
sim_ops                                      20364675                       # Number of ops (including micro ops) simulated
system.voltage_domain.voltage                       1                       # Voltage in Volts
system.clk_domain.clock                           667                       # Clock period in ticks
system.mem_ctrls.pwrStateResidencyTicks::UNDEFINED  17339162582                       # Cumulative time (in ticks) in various power states
system.mem_ctrls.bytes_read::.cpu.inst          69440                       # Number of bytes read from this memory
system.mem_ctrls.bytes_read::.cpu.data        1153088                       # Number of bytes read from this memory
system.mem_ctrls.bytes_read::total            1222528                       # Number of bytes read from this memory
system.mem_ctrls.bytes_inst_read::.cpu.inst        69440                       # Number of instructions bytes read from this memory
system.mem_ctrls.bytes_inst_read::total         69440                       # Number of instructions bytes read from this memory
system.mem_ctrls.num_reads::.cpu.inst            1085                       # Number of read requests responded to by this memory
system.mem_ctrls.num_reads::.cpu.data           18017                       # Number of read requests responded to by this memory
system.mem_ctrls.num_reads::total               19102                       # Number of read requests responded to by this memory
system.mem_ctrls.bw_read::.cpu.inst           4004807                       # Total read bandwidth from this memory (bytes/s)
system.mem_ctrls.bw_read::.cpu.data          66501943                       # Total read bandwidth from this memory (bytes/s)
system.mem_ctrls.bw_read::total              70506750                       # Total read bandwidth from this memory (bytes/s)
system.mem_ctrls.bw_inst_read::.cpu.inst      4004807                       # Instruction read bandwidth from this memory (bytes/s)
system.mem_ctrls.bw_inst_read::total          4004807                       # Instruction read bandwidth from this memory (bytes/s)
system.mem_ctrls.bw_total::.cpu.inst          4004807                       # Total bandwidth to/from this memory (bytes/s)
system.mem_ctrls.bw_total::.cpu.data         66501943                       # Total bandwidth to/from this memory (bytes/s)
system.mem_ctrls.bw_total::total             70506750                       # Total bandwidth to/from this memory (bytes/s)
system.mem_ctrls.avgPriority_.cpu.inst::samples      1085.00                       # Average QoS priority value for accepted requests
system.mem_ctrls.avgPriority_.cpu.data::samples     18017.00                       # Average QoS priority value for accepted requests
system.mem_ctrls.priorityMinLatency      0.000000018750                       # per QoS priority minimum request to response latency (s)
system.mem_ctrls.priorityMaxLatency      0.000001099750                       # per QoS priority maximum request to response latency (s)
system.mem_ctrls.numReadWriteTurnArounds            0                       # Number of turnarounds from READ to WRITE
system.mem_ctrls.numWriteReadTurnArounds            0                       # Number of turnarounds from WRITE to READ
system.mem_ctrls.numStayReadState               38500                       # Number of times bus staying in READ state
system.mem_ctrls.numStayWriteState                  0                       # Number of times bus staying in WRITE state
system.mem_ctrls.readReqs                       19102                       # Number of read requests accepted
system.mem_ctrls.writeReqs                          0                       # Number of write requests accepted
system.mem_ctrls.readBursts                     19102                       # Number of DRAM read bursts, including those serviced by the write queue
system.mem_ctrls.writeBursts                        0                       # Number of DRAM write bursts, including those merged in the write queue
system.mem_ctrls.bytesReadDRAM                1222528                       # Total number of bytes read from DRAM
system.mem_ctrls.bytesReadWrQ                       0                       # Total number of bytes read from write queue
system.mem_ctrls.bytesWritten                       0                       # Total number of bytes written to DRAM
system.mem_ctrls.bytesReadSys                 1222528                       # Total read bytes from the system interface side
system.mem_ctrls.bytesWrittenSys                    0                       # Total written bytes from the system interface side
system.mem_ctrls.servicedByWrQ                      0                       # Number of DRAM read bursts serviced by the write queue
system.mem_ctrls.mergedWrBursts                     0                       # Number of DRAM write bursts merged with an existing one
system.mem_ctrls.neitherReadNorWriteReqs            0                       # Number of requests that are neither read nor write
system.mem_ctrls.perBankRdBursts::0              1229                       # Per bank write bursts
system.mem_ctrls.perBankRdBursts::1              1185                       # Per bank write bursts
system.mem_ctrls.perBankRdBursts::2              1216                       # Per bank write bursts
system.mem_ctrls.perBankRdBursts::3              1261                       # Per bank write bursts
system.mem_ctrls.perBankRdBursts::4              1183                       # Per bank write bursts
system.mem_ctrls.perBankRdBursts::5              1068                       # Per bank write bursts
system.mem_ctrls.perBankRdBursts::6              1101                       # Per bank write bursts
system.mem_ctrls.perBankRdBursts::7              1090                       # Per bank write bursts
system.mem_ctrls.perBankRdBursts::8              1208                       # Per bank write bursts
system.mem_ctrls.perBankRdBursts::9              1249                       # Per bank write bursts
system.mem_ctrls.perBankRdBursts::10             1244                       # Per bank write bursts
system.mem_ctrls.perBankRdBursts::11             1191                       # Per bank write bursts
system.mem_ctrls.perBankRdBursts::12             1167                       # Per bank write bursts
system.mem_ctrls.perBankRdBursts::13             1256                       # Per bank write bursts
system.mem_ctrls.perBankRdBursts::14             1213                       # Per bank write bursts
system.mem_ctrls.perBankRdBursts::15             1241                       # Per bank write bursts
system.mem_ctrls.perBankWrBursts::0                 0                       # Per bank write bursts
system.mem_ctrls.perBankWrBursts::1                 0                       # Per bank write bursts
system.mem_ctrls.perBankWrBursts::2                 0                       # Per bank write bursts
system.mem_ctrls.perBankWrBursts::3                 0                       # Per bank write bursts
system.mem_ctrls.perBankWrBursts::4                 0                       # Per bank write bursts
system.mem_ctrls.perBankWrBursts::5                 0                       # Per bank write bursts
system.mem_ctrls.perBankWrBursts::6                 0                       # Per bank write bursts
system.mem_ctrls.perBankWrBursts::7                 0                       # Per bank write bursts
system.mem_ctrls.perBankWrBursts::8                 0                       # Per bank write bursts
system.mem_ctrls.perBankWrBursts::9                 0                       # Per bank write bursts
system.mem_ctrls.perBankWrBursts::10                0                       # Per bank write bursts
system.mem_ctrls.perBankWrBursts::11                0                       # Per bank write bursts
system.mem_ctrls.perBankWrBursts::12                0                       # Per bank write bursts
system.mem_ctrls.perBankWrBursts::13                0                       # Per bank write bursts
system.mem_ctrls.perBankWrBursts::14                0                       # Per bank write bursts
system.mem_ctrls.perBankWrBursts::15                0                       # Per bank write bursts
system.mem_ctrls.numRdRetry                         0                       # Number of times read queue was full causing retry
system.mem_ctrls.numWrRetry                         0                       # Number of times write queue was full causing retry
system.mem_ctrls.totGap                   17338922462                       # Total gap between requests
system.mem_ctrls.readPktSize::0                     0                       # Read request sizes (log2)
system.mem_ctrls.readPktSize::1                     0                       # Read request sizes (log2)
system.mem_ctrls.readPktSize::2                     0                       # Read request sizes (log2)
system.mem_ctrls.readPktSize::3                     0                       # Read request sizes (log2)
system.mem_ctrls.readPktSize::4                     0                       # Read request sizes (log2)
system.mem_ctrls.readPktSize::5                     0                       # Read request sizes (log2)
system.mem_ctrls.readPktSize::6                 19102                       # Read request sizes (log2)
system.mem_ctrls.writePktSize::0                    0                       # Write request sizes (log2)
system.mem_ctrls.writePktSize::1                    0                       # Write request sizes (log2)
system.mem_ctrls.writePktSize::2                    0                       # Write request sizes (log2)
system.mem_ctrls.writePktSize::3                    0                       # Write request sizes (log2)
system.mem_ctrls.writePktSize::4                    0                       # Write request sizes (log2)
system.mem_ctrls.writePktSize::5                    0                       # Write request sizes (log2)
system.mem_ctrls.writePktSize::6                    0                       # Write request sizes (log2)
system.mem_ctrls.rdQLenPdf::0                   17863                       # What read queue length does an incoming req see
system.mem_ctrls.rdQLenPdf::1                     861                       # What read queue length does an incoming req see
system.mem_ctrls.rdQLenPdf::2                     303                       # What read queue length does an incoming req see
system.mem_ctrls.rdQLenPdf::3                      72                       # What read queue length does an incoming req see
system.mem_ctrls.rdQLenPdf::4                       3                       # What read queue length does an incoming req see
system.mem_ctrls.rdQLenPdf::5                       0                       # What read queue length does an incoming req see
system.mem_ctrls.rdQLenPdf::6                       0                       # What read queue length does an incoming req see
system.mem_ctrls.rdQLenPdf::7                       0                       # What read queue length does an incoming req see
system.mem_ctrls.rdQLenPdf::8                       0                       # What read queue length does an incoming req see
system.mem_ctrls.rdQLenPdf::9                       0                       # What read queue length does an incoming req see
system.mem_ctrls.rdQLenPdf::10                      0                       # What read queue length does an incoming req see
system.mem_ctrls.rdQLenPdf::11                      0                       # What read queue length does an incoming req see
system.mem_ctrls.rdQLenPdf::12                      0                       # What read queue length does an incoming req see
system.mem_ctrls.rdQLenPdf::13                      0                       # What read queue length does an incoming req see
system.mem_ctrls.rdQLenPdf::14                      0                       # What read queue length does an incoming req see
system.mem_ctrls.rdQLenPdf::15                      0                       # What read queue length does an incoming req see
system.mem_ctrls.rdQLenPdf::16                      0                       # What read queue length does an incoming req see
system.mem_ctrls.rdQLenPdf::17                      0                       # What read queue length does an incoming req see
system.mem_ctrls.rdQLenPdf::18                      0                       # What read queue length does an incoming req see
system.mem_ctrls.rdQLenPdf::19                      0                       # What read queue length does an incoming req see
system.mem_ctrls.rdQLenPdf::20                      0                       # What read queue length does an incoming req see
system.mem_ctrls.rdQLenPdf::21                      0                       # What read queue length does an incoming req see
system.mem_ctrls.rdQLenPdf::22                      0                       # What read queue length does an incoming req see
system.mem_ctrls.rdQLenPdf::23                      0                       # What read queue length does an incoming req see
system.mem_ctrls.rdQLenPdf::24                      0                       # What read queue length does an incoming req see
system.mem_ctrls.rdQLenPdf::25                      0                       # What read queue length does an incoming req see
system.mem_ctrls.rdQLenPdf::26                      0                       # What read queue length does an incoming req see
system.mem_ctrls.rdQLenPdf::27                      0                       # What read queue length does an incoming req see
system.mem_ctrls.rdQLenPdf::28                      0                       # What read queue length does an incoming req see
system.mem_ctrls.rdQLenPdf::29                      0                       # What read queue length does an incoming req see
system.mem_ctrls.rdQLenPdf::30                      0                       # What read queue length does an incoming req see
system.mem_ctrls.rdQLenPdf::31                      0                       # What read queue length does an incoming req see
system.mem_ctrls.wrQLenPdf::0                       0                       # What write queue length does an incoming req see
system.mem_ctrls.wrQLenPdf::1                       0                       # What write queue length does an incoming req see
system.mem_ctrls.wrQLenPdf::2                       0                       # What write queue length does an incoming req see
system.mem_ctrls.wrQLenPdf::3                       0                       # What write queue length does an incoming req see
system.mem_ctrls.wrQLenPdf::4                       0                       # What write queue length does an incoming req see
system.mem_ctrls.wrQLenPdf::5                       0                       # What write queue length does an incoming req see
system.mem_ctrls.wrQLenPdf::6                       0                       # What write queue length does an incoming req see
system.mem_ctrls.wrQLenPdf::7                       0                       # What write queue length does an incoming req see
system.mem_ctrls.wrQLenPdf::8                       0                       # What write queue length does an incoming req see
system.mem_ctrls.wrQLenPdf::9                       0                       # What write queue length does an incoming req see
system.mem_ctrls.wrQLenPdf::10                      0                       # What write queue length does an incoming req see
system.mem_ctrls.wrQLenPdf::11                      0                       # What write queue length does an incoming req see
system.mem_ctrls.wrQLenPdf::12                      0                       # What write queue length does an incoming req see
system.mem_ctrls.wrQLenPdf::13                      0                       # What write queue length does an incoming req see
system.mem_ctrls.wrQLenPdf::14                      0                       # What write queue length does an incoming req see
system.mem_ctrls.wrQLenPdf::15                      0                       # What write queue length does an incoming req see
system.mem_ctrls.wrQLenPdf::16                      0                       # What write queue length does an incoming req see
system.mem_ctrls.wrQLenPdf::17                      0                       # What write queue length does an incoming req see
system.mem_ctrls.wrQLenPdf::18                      0                       # What write queue length does an incoming req see
system.mem_ctrls.wrQLenPdf::19                      0                       # What write queue length does an incoming req see
system.mem_ctrls.wrQLenPdf::20                      0                       # What write queue length does an incoming req see
system.mem_ctrls.wrQLenPdf::21                      0                       # What write queue length does an incoming req see
system.mem_ctrls.wrQLenPdf::22                      0                       # What write queue length does an incoming req see
system.mem_ctrls.wrQLenPdf::23                      0                       # What write queue length does an incoming req see
system.mem_ctrls.wrQLenPdf::24                      0                       # What write queue length does an incoming req see
system.mem_ctrls.wrQLenPdf::25                      0                       # What write queue length does an incoming req see
system.mem_ctrls.wrQLenPdf::26                      0                       # What write queue length does an incoming req see
system.mem_ctrls.wrQLenPdf::27                      0                       # What write queue length does an incoming req see
system.mem_ctrls.wrQLenPdf::28                      0                       # What write queue length does an incoming req see
system.mem_ctrls.wrQLenPdf::29                      0                       # What write queue length does an incoming req see
system.mem_ctrls.wrQLenPdf::30                      0                       # What write queue length does an incoming req see
system.mem_ctrls.wrQLenPdf::31                      0                       # What write queue length does an incoming req see
system.mem_ctrls.wrQLenPdf::32                      0                       # What write queue length does an incoming req see
system.mem_ctrls.wrQLenPdf::33                      0                       # What write queue length does an incoming req see
system.mem_ctrls.wrQLenPdf::34                      0                       # What write queue length does an incoming req see
system.mem_ctrls.wrQLenPdf::35                      0                       # What write queue length does an incoming req see
system.mem_ctrls.wrQLenPdf::36                      0                       # What write queue length does an incoming req see
system.mem_ctrls.wrQLenPdf::37                      0                       # What write queue length does an incoming req see
system.mem_ctrls.wrQLenPdf::38                      0                       # What write queue length does an incoming req see
system.mem_ctrls.wrQLenPdf::39                      0                       # What write queue length does an incoming req see
system.mem_ctrls.wrQLenPdf::40                      0                       # What write queue length does an incoming req see
system.mem_ctrls.wrQLenPdf::41                      0                       # What write queue length does an incoming req see
system.mem_ctrls.wrQLenPdf::42                      0                       # What write queue length does an incoming req see
system.mem_ctrls.wrQLenPdf::43                      0                       # What write queue length does an incoming req see
system.mem_ctrls.wrQLenPdf::44                      0                       # What write queue length does an incoming req see
system.mem_ctrls.wrQLenPdf::45                      0                       # What write queue length does an incoming req see
system.mem_ctrls.wrQLenPdf::46                      0                       # What write queue length does an incoming req see
system.mem_ctrls.wrQLenPdf::47                      0                       # What write queue length does an incoming req see
system.mem_ctrls.wrQLenPdf::48                      0                       # What write queue length does an incoming req see
system.mem_ctrls.wrQLenPdf::49                      0                       # What write queue length does an incoming req see
system.mem_ctrls.wrQLenPdf::50                      0                       # What write queue length does an incoming req see
system.mem_ctrls.wrQLenPdf::51                      0                       # What write queue length does an incoming req see
system.mem_ctrls.wrQLenPdf::52                      0                       # What write queue length does an incoming req see
system.mem_ctrls.wrQLenPdf::53                      0                       # What write queue length does an incoming req see
system.mem_ctrls.wrQLenPdf::54                      0                       # What write queue length does an incoming req see
system.mem_ctrls.wrQLenPdf::55                      0                       # What write queue length does an incoming req see
system.mem_ctrls.wrQLenPdf::56                      0                       # What write queue length does an incoming req see
system.mem_ctrls.wrQLenPdf::57                      0                       # What write queue length does an incoming req see
system.mem_ctrls.wrQLenPdf::58                      0                       # What write queue length does an incoming req see
system.mem_ctrls.wrQLenPdf::59                      0                       # What write queue length does an incoming req see
system.mem_ctrls.wrQLenPdf::60                      0                       # What write queue length does an incoming req see
system.mem_ctrls.wrQLenPdf::61                      0                       # What write queue length does an incoming req see
system.mem_ctrls.wrQLenPdf::62                      0                       # What write queue length does an incoming req see
system.mem_ctrls.wrQLenPdf::63                      0                       # What write queue length does an incoming req see
system.mem_ctrls.bytesPerActivate::samples         1682                       # Bytes accessed per row activation
system.mem_ctrls.bytesPerActivate::mean    726.030916                       # Bytes accessed per row activation
system.mem_ctrls.bytesPerActivate::gmean   536.629714                       # Bytes accessed per row activation
system.mem_ctrls.bytesPerActivate::stdev   378.077474                       # Bytes accessed per row activation
system.mem_ctrls.bytesPerActivate::0-127          189     11.24%     11.24% # Bytes accessed per row activation
system.mem_ctrls.bytesPerActivate::128-255          150      8.92%     20.15% # Bytes accessed per row activation
system.mem_ctrls.bytesPerActivate::256-383           96      5.71%     25.86% # Bytes accessed per row activation
system.mem_ctrls.bytesPerActivate::384-511           68      4.04%     29.90% # Bytes accessed per row activation
system.mem_ctrls.bytesPerActivate::512-639           47      2.79%     32.70% # Bytes accessed per row activation
system.mem_ctrls.bytesPerActivate::640-767           50      2.97%     35.67% # Bytes accessed per row activation
system.mem_ctrls.bytesPerActivate::768-895          165      9.81%     45.48% # Bytes accessed per row activation
system.mem_ctrls.bytesPerActivate::896-1023           41      2.44%     47.92% # Bytes accessed per row activation
system.mem_ctrls.bytesPerActivate::1024-1151          876     52.08%    100.00% # Bytes accessed per row activation
system.mem_ctrls.bytesPerActivate::total         1682                       # Bytes accessed per row activation
system.mem_ctrls.masterReadBytes::.cpu.inst        69440                       # Per-master bytes read from memory
system.mem_ctrls.masterReadBytes::.cpu.data      1153088                       # Per-master bytes read from memory
system.mem_ctrls.masterReadRate::.cpu.inst 4004807.018309323117                       # Per-master bytes read from memory rate (Bytes/sec)
system.mem_ctrls.masterReadRate::.cpu.data 66501942.902192696929                       # Per-master bytes read from memory rate (Bytes/sec)
system.mem_ctrls.masterReadAccesses::.cpu.inst         1085                       # Per-master read serviced memory accesses
system.mem_ctrls.masterReadAccesses::.cpu.data        18017                       # Per-master read serviced memory accesses
system.mem_ctrls.masterReadTotalLat::.cpu.inst     36287073                       # Per-master read total memory access latency
system.mem_ctrls.masterReadTotalLat::.cpu.data    527786864                       # Per-master read total memory access latency
system.mem_ctrls.masterReadAvgLat::.cpu.inst     33444.31                       # Per-master read average memory access latency
system.mem_ctrls.masterReadAvgLat::.cpu.data     29293.83                       # Per-master read average memory access latency
system.mem_ctrls.totQLat                    205911437                       # Total ticks spent queuing
system.mem_ctrls.totMemAccLat               564073937                       # Total ticks spent from burst creation until serviced by the DRAM
system.mem_ctrls.totBusLat                   95510000                       # Total ticks spent in databus transfers
system.mem_ctrls.avgQLat                     10779.57                       # Average queueing delay per DRAM burst
system.mem_ctrls.avgBusLat                    5000.00                       # Average bus latency per DRAM burst
system.mem_ctrls.avgMemAccLat                29529.57                       # Average memory access latency per DRAM burst
system.mem_ctrls.avgRdBW                        70.51                       # Average DRAM read bandwidth in MiByte/s
system.mem_ctrls.avgWrBW                         0.00                       # Average achieved write bandwidth in MiByte/s
system.mem_ctrls.avgRdBWSys                     70.51                       # Average system read bandwidth in MiByte/s
system.mem_ctrls.avgWrBWSys                      0.00                       # Average system write bandwidth in MiByte/s
system.mem_ctrls.peakBW                      12800.00                       # Theoretical peak bandwidth in MiByte/s
system.mem_ctrls.busUtil                         0.55                       # Data bus utilization in percentage
system.mem_ctrls.busUtilRead                     0.55                       # Data bus utilization in percentage for reads
system.mem_ctrls.busUtilWrite                    0.00                       # Data bus utilization in percentage for writes
system.mem_ctrls.avgRdQLen                       1.09                       # Average read queue length when enqueuing
system.mem_ctrls.avgWrQLen                       0.00                       # Average write queue length when enqueuing
system.mem_ctrls.readRowHits                    17414                       # Number of row buffer hits during reads
system.mem_ctrls.writeRowHits                       0                       # Number of row buffer hits during writes
system.mem_ctrls.readRowHitRate                 91.16                       # Row buffer hit rate for reads
system.mem_ctrls.writeRowHitRate                  nan                       # Row buffer hit rate for writes
system.mem_ctrls.avgGap                     907701.94                       # Average gap between requests
system.mem_ctrls.pageHitRate                    91.16                       # Row buffer hit rate, read and write combined
system.mem_ctrls_0.actEnergy                  6147540                       # Energy for activate commands per rank (pJ)
system.mem_ctrls_0.preEnergy                  3263700                       # Energy for precharge commands per rank (pJ)
system.mem_ctrls_0.readEnergy                66637620                       # Energy for read commands per rank (pJ)
system.mem_ctrls_0.writeEnergy                      0                       # Energy for write commands per rank (pJ)
system.mem_ctrls_0.refreshEnergy         100800960.000000                       # Energy for refresh commands per rank (pJ)
system.mem_ctrls_0.actBackEnergy            129252630                       # Energy for active background per rank (pJ)
system.mem_ctrls_0.preBackEnergy              5413440                       # Energy for precharge background per rank (pJ)
system.mem_ctrls_0.actPowerDownEnergy       408655800                       # Energy for active power-down per rank (pJ)
system.mem_ctrls_0.prePowerDownEnergy        33477120                       # Energy for precharge power-down per rank (pJ)
system.mem_ctrls_0.selfRefreshEnergy       3861162120                       # Energy for self refresh per rank (pJ)
system.mem_ctrls_0.totalEnergy             4614810930                       # Total energy per rank (pJ)
system.mem_ctrls_0.averagePower            266.149585                       # Core power per rank (mW)
system.mem_ctrls_0.totalIdleTime          17041552939                       # Total Idle time Per DRAM Rank
system.mem_ctrls_0.memoryStateTime::IDLE      5667341                       # Time in different power states
system.mem_ctrls_0.memoryStateTime::REF      42640000                       # Time in different power states
system.mem_ctrls_0.memoryStateTime::SREF  16058260647                       # Time in different power states
system.mem_ctrls_0.memoryStateTime::PRE_PDN     87171762                       # Time in different power states
system.mem_ctrls_0.memoryStateTime::ACT     249252867                       # Time in different power states
system.mem_ctrls_0.memoryStateTime::ACT_PDN    896169965                       # Time in different power states
system.mem_ctrls_1.actEnergy                  5904780                       # Energy for activate commands per rank (pJ)
system.mem_ctrls_1.preEnergy                  3119490                       # Energy for precharge commands per rank (pJ)
system.mem_ctrls_1.readEnergy                69750660                       # Energy for read commands per rank (pJ)
system.mem_ctrls_1.writeEnergy                      0                       # Energy for write commands per rank (pJ)
system.mem_ctrls_1.refreshEnergy         104488800.000000                       # Energy for refresh commands per rank (pJ)
system.mem_ctrls_1.actBackEnergy            134170020                       # Energy for active background per rank (pJ)
system.mem_ctrls_1.preBackEnergy              6126720                       # Energy for precharge background per rank (pJ)
system.mem_ctrls_1.actPowerDownEnergy       439931700                       # Energy for active power-down per rank (pJ)
system.mem_ctrls_1.prePowerDownEnergy        22365600                       # Energy for precharge power-down per rank (pJ)
system.mem_ctrls_1.selfRefreshEnergy       3845850720                       # Energy for self refresh per rank (pJ)
system.mem_ctrls_1.totalEnergy             4631708490                       # Total energy per rank (pJ)
system.mem_ctrls_1.averagePower            267.124117                       # Core power per rank (mW)
system.mem_ctrls_1.totalIdleTime          17028691527                       # Total Idle time Per DRAM Rank
system.mem_ctrls_1.memoryStateTime::IDLE      6947286                       # Time in different power states
system.mem_ctrls_1.memoryStateTime::REF      44200000                       # Time in different power states
system.mem_ctrls_1.memoryStateTime::SREF  16005969313                       # Time in different power states
system.mem_ctrls_1.memoryStateTime::PRE_PDN     58237685                       # Time in different power states
system.mem_ctrls_1.memoryStateTime::ACT     259026358                       # Time in different power states
system.mem_ctrls_1.memoryStateTime::ACT_PDN    964781940                       # Time in different power states
system.pwrStateResidencyTicks::UNDEFINED  17339162582                       # Cumulative time (in ticks) in various power states
system.cpu.branchPred.lookups                 2353880                       # Number of BP lookups
system.cpu.branchPred.condPredicted           2353880                       # Number of conditional branches predicted
system.cpu.branchPred.condIncorrect              8046                       # Number of conditional branches incorrect
system.cpu.branchPred.BTBLookups              2334572                       # Number of BTB lookups
system.cpu.branchPred.BTBHits                       0                       # Number of BTB hits
system.cpu.branchPred.BTBCorrect                    0                       # Number of correct BTB predictions (this stat may not work properly.
system.cpu.branchPred.BTBHitPct              0.000000                       # BTB Hit Percentage
system.cpu.branchPred.usedRAS                    1722                       # Number of times the RAS was used to get a target.
system.cpu.branchPred.RASInCorrect                399                       # Number of incorrect RAS predictions.
system.cpu.branchPred.indirectLookups         2334572                       # Number of indirect predictor lookups.
system.cpu.branchPred.indirectHits            2294492                       # Number of indirect target hits.
system.cpu.branchPred.indirectMisses            40080                       # Number of indirect misses.
system.cpu.branchPredindirectMispredicted         4284                       # Number of mispredicted indirect branches.
system.cpu_voltage_domain.voltage                   1                       # Voltage in Volts
system.cpu_clk_domain.clock                       667                       # Clock period in ticks
system.cpu.dtb.walker.pwrStateResidencyTicks::UNDEFINED  17339162582                       # Cumulative time (in ticks) in various power states
system.cpu.dtb.rdAccesses                      191450                       # TLB accesses on read requests
system.cpu.dtb.wrAccesses                     2212912                       # TLB accesses on write requests
system.cpu.dtb.rdMisses                          2220                       # TLB misses on read requests
system.cpu.dtb.wrMisses                         41100                       # TLB misses on write requests
system.cpu.apic_clk_domain.clock                10672                       # Clock period in ticks
system.cpu.interrupts.pwrStateResidencyTicks::UNDEFINED  17339162582                       # Cumulative time (in ticks) in various power states
system.cpu.itb.walker.pwrStateResidencyTicks::UNDEFINED  17339162582                       # Cumulative time (in ticks) in various power states
system.cpu.itb.rdAccesses                           0                       # TLB accesses on read requests
system.cpu.itb.wrAccesses                      170869                       # TLB accesses on write requests
system.cpu.itb.rdMisses                             0                       # TLB misses on read requests
system.cpu.itb.wrMisses                           156                       # TLB misses on write requests
system.cpu.workload.numSyscalls                    32                       # Number of system calls
system.cpu.pwrStateResidencyTicks::ON     17339162582                       # Cumulative time (in ticks) in various power states
system.cpu.numCycles                         25995747                       # number of cpu cycles simulated
system.cpu.numWorkItemsStarted                      0                       # number of work items this cpu started
system.cpu.numWorkItemsCompleted                    0                       # number of work items this cpu completed
system.cpu.fetch.icacheStallCycles             200379                       # Number of cycles fetch is stalled on an Icache miss
system.cpu.fetch.Insts                       12664030                       # Number of instructions fetch has processed
system.cpu.fetch.Branches                     2353880                       # Number of branches that fetch encountered
system.cpu.fetch.predictedBranches            2296214                       # Number of branches that fetch has predicted taken
system.cpu.fetch.Cycles                      25723434                       # Number of cycles fetch has run and was not squashing or blocked
system.cpu.fetch.SquashCycles                   16234                       # Number of cycles fetch has spent squashing
system.cpu.fetch.TlbCycles                        127                       # Number of cycles fetch has spent waiting for tlb
system.cpu.fetch.MiscStallCycles                   42                       # Number of cycles fetch has spent waiting on interrupts, or bad addresses, or out of MSHRs
system.cpu.fetch.PendingTrapStallCycles           417                       # Number of stall cycles due to pending traps
system.cpu.fetch.PendingQuiesceStallCycles           14                       # Number of stall cycles due to pending quiesce instructions
system.cpu.fetch.IcacheWaitRetryStallCycles           69                       # Number of stall cycles due to full MSHR
system.cpu.fetch.CacheLines                    170808                       # Number of cache lines fetched
system.cpu.fetch.IcacheSquashes                  2350                       # Number of outstanding Icache misses that were squashed
system.cpu.fetch.rateDist::samples           25932599                       # Number of instructions fetched each cycle (Total)
system.cpu.fetch.rateDist::mean              0.805072                       # Number of instructions fetched each cycle (Total)
system.cpu.fetch.rateDist::stdev             2.349680                       # Number of instructions fetched each cycle (Total)
system.cpu.fetch.rateDist::underflows               0      0.00%      0.00% # Number of instructions fetched each cycle (Total)
system.cpu.fetch.rateDist::0                 23093676     89.05%     89.05% # Number of instructions fetched each cycle (Total)
system.cpu.fetch.rateDist::1                     7705      0.03%     89.08% # Number of instructions fetched each cycle (Total)
system.cpu.fetch.rateDist::2                     3884      0.01%     89.10% # Number of instructions fetched each cycle (Total)
system.cpu.fetch.rateDist::3                    70577      0.27%     89.37% # Number of instructions fetched each cycle (Total)
system.cpu.fetch.rateDist::4                   292239      1.13%     90.50% # Number of instructions fetched each cycle (Total)
system.cpu.fetch.rateDist::5                    69864      0.27%     90.77% # Number of instructions fetched each cycle (Total)
system.cpu.fetch.rateDist::6                     9806      0.04%     90.80% # Number of instructions fetched each cycle (Total)
system.cpu.fetch.rateDist::7                     5490      0.02%     90.82% # Number of instructions fetched each cycle (Total)
system.cpu.fetch.rateDist::8                  2379358      9.18%    100.00% # Number of instructions fetched each cycle (Total)
system.cpu.fetch.rateDist::overflows                0      0.00%    100.00% # Number of instructions fetched each cycle (Total)
system.cpu.fetch.rateDist::min_value                0                       # Number of instructions fetched each cycle (Total)
system.cpu.fetch.rateDist::max_value                8                       # Number of instructions fetched each cycle (Total)
system.cpu.fetch.rateDist::total             25932599                       # Number of instructions fetched each cycle (Total)
system.cpu.fetch.branchRate                  0.090549                       # Number of branch fetches per cycle
system.cpu.fetch.rate                        0.487158                       # Number of inst fetches per cycle
system.cpu.decode.IdleCycles                   900549                       # Number of cycles decode is idle
system.cpu.decode.BlockedCycles              22398571                       # Number of cycles decode is blocked
system.cpu.decode.RunCycles                    727483                       # Number of cycles decode is running
system.cpu.decode.UnblockCycles               1897879                       # Number of cycles decode is unblocking
system.cpu.decode.SquashCycles                   8117                       # Number of cycles decode is squashing
system.cpu.decode.DecodedInsts               20790291                       # Number of instructions handled by decode
system.cpu.rename.SquashCycles                   8117                       # Number of cycles rename is squashing
system.cpu.rename.IdleCycles                  1342710                       # Number of cycles rename is idle
system.cpu.rename.BlockCycles                 6929480                       # Number of cycles rename is blocking
system.cpu.rename.serializeStallCycles           2421                       # count of cycles rename stalled for serializing inst
system.cpu.rename.RunCycles                   2165580                       # Number of cycles rename is running
system.cpu.rename.UnblockCycles              15484291                       # Number of cycles rename is unblocking
system.cpu.rename.RenamedInsts               20750303                       # Number of instructions processed by rename
system.cpu.rename.ROBFullEvents                  1884                       # Number of times rename has blocked due to ROB full
system.cpu.rename.IQFullEvents                  57298                       # Number of times rename has blocked due to IQ full
system.cpu.rename.LQFullEvents                    204                       # Number of times rename has blocked due to LQ full
system.cpu.rename.SQFullEvents               14981147                       # Number of times rename has blocked due to SQ full
system.cpu.rename.RenamedOperands            30030780                       # Number of destination operands rename has renamed
system.cpu.rename.RenameLookups              51338443                       # Number of register rename lookups that rename has made
system.cpu.rename.int_rename_lookups         28105595                       # Number of integer rename lookups
system.cpu.rename.fp_rename_lookups           4392421                       # Number of floating rename lookups
system.cpu.rename.CommittedMaps              29547072                       # Number of HB maps that are committed
system.cpu.rename.UndoneMaps                   483708                       # Number of HB maps that are undone due to squashing
system.cpu.rename.serializingInsts                 93                       # count of serializing insts renamed
system.cpu.rename.tempSerializingInsts             65                       # count of temporary serializing insts renamed
system.cpu.rename.skidInsts                   9314986                       # count of insts added to the skid buffer
system.cpu.memDep0.insertedLoads               202690                       # Number of loads inserted to the mem dependence unit.
system.cpu.memDep0.insertedStores             2217705                       # Number of stores inserted to the mem dependence unit.
system.cpu.memDep0.conflictingLoads              1062                       # Number of conflicting loads.
system.cpu.memDep0.conflictingStores              181                       # Number of conflicting stores.
system.cpu.iq.iqInstsAdded                   20683165                       # Number of instructions added to the IQ (excludes non-spec)
system.cpu.iq.iqNonSpecInstsAdded                 134                       # Number of non-speculative instructions added to the IQ
system.cpu.iq.iqInstsIssued                  20585390                       # Number of instructions issued
system.cpu.iq.iqSquashedInstsIssued              2634                       # Number of squashed instructions issued
system.cpu.iq.iqSquashedInstsExamined          318623                       # Number of squashed instructions iterated over during squash; mainly for profiling
system.cpu.iq.iqSquashedOperandsExamined       445983                       # Number of squashed operands that are examined and possibly removed from graph
system.cpu.iq.iqSquashedNonSpecRemoved             90                       # Number of squashed non-spec instructions that were removed
system.cpu.iq.issued_per_cycle::samples      25932599                       # Number of insts issued each cycle
system.cpu.iq.issued_per_cycle::mean         0.793804                       # Number of insts issued each cycle
system.cpu.iq.issued_per_cycle::stdev        1.801620                       # Number of insts issued each cycle
system.cpu.iq.issued_per_cycle::underflows            0      0.00%      0.00% # Number of insts issued each cycle
system.cpu.iq.issued_per_cycle::0            20644367     79.61%     79.61% # Number of insts issued each cycle
system.cpu.iq.issued_per_cycle::1              854951      3.30%     82.90% # Number of insts issued each cycle
system.cpu.iq.issued_per_cycle::2             1029209      3.97%     86.87% # Number of insts issued each cycle
system.cpu.iq.issued_per_cycle::3              214034      0.83%     87.70% # Number of insts issued each cycle
system.cpu.iq.issued_per_cycle::4              659977      2.54%     90.24% # Number of insts issued each cycle
system.cpu.iq.issued_per_cycle::5             1062845      4.10%     94.34% # Number of insts issued each cycle
system.cpu.iq.issued_per_cycle::6             1256085      4.84%     99.19% # Number of insts issued each cycle
system.cpu.iq.issued_per_cycle::7              149772      0.58%     99.76% # Number of insts issued each cycle
system.cpu.iq.issued_per_cycle::8               61359      0.24%    100.00% # Number of insts issued each cycle
system.cpu.iq.issued_per_cycle::overflows            0      0.00%    100.00% # Number of insts issued each cycle
system.cpu.iq.issued_per_cycle::min_value            0                       # Number of insts issued each cycle
system.cpu.iq.issued_per_cycle::max_value            8                       # Number of insts issued each cycle
system.cpu.iq.issued_per_cycle::total        25932599                       # Number of insts issued each cycle
system.cpu.iq.fu_full::No_OpClass                   0      0.00%      0.00% # attempts to use FU when none available
system.cpu.iq.fu_full::IntAlu                   50156     18.56%     18.56% # attempts to use FU when none available
system.cpu.iq.fu_full::IntMult                      0      0.00%     18.56% # attempts to use FU when none available
system.cpu.iq.fu_full::IntDiv                       0      0.00%     18.56% # attempts to use FU when none available
system.cpu.iq.fu_full::FloatAdd                     0      0.00%     18.56% # attempts to use FU when none available
system.cpu.iq.fu_full::FloatCmp                     0      0.00%     18.56% # attempts to use FU when none available
system.cpu.iq.fu_full::FloatCvt                     0      0.00%     18.56% # attempts to use FU when none available
system.cpu.iq.fu_full::FloatMult                    0      0.00%     18.56% # attempts to use FU when none available
system.cpu.iq.fu_full::FloatMultAcc                 0      0.00%     18.56% # attempts to use FU when none available
system.cpu.iq.fu_full::FloatDiv                     0      0.00%     18.56% # attempts to use FU when none available
system.cpu.iq.fu_full::FloatMisc                    0      0.00%     18.56% # attempts to use FU when none available
system.cpu.iq.fu_full::FloatSqrt                    0      0.00%     18.56% # attempts to use FU when none available
system.cpu.iq.fu_full::SimdAdd                      0      0.00%     18.56% # attempts to use FU when none available
system.cpu.iq.fu_full::SimdAddAcc                   0      0.00%     18.56% # attempts to use FU when none available
system.cpu.iq.fu_full::SimdAlu                  78003     28.87%     47.44% # attempts to use FU when none available
system.cpu.iq.fu_full::SimdCmp                      0      0.00%     47.44% # attempts to use FU when none available
system.cpu.iq.fu_full::SimdCvt                  78054     28.89%     76.33% # attempts to use FU when none available
system.cpu.iq.fu_full::SimdMisc                 62466     23.12%     99.45% # attempts to use FU when none available
system.cpu.iq.fu_full::SimdMult                     0      0.00%     99.45% # attempts to use FU when none available
system.cpu.iq.fu_full::SimdMultAcc                  0      0.00%     99.45% # attempts to use FU when none available
system.cpu.iq.fu_full::SimdShift                    1      0.00%     99.45% # attempts to use FU when none available
system.cpu.iq.fu_full::SimdShiftAcc                 0      0.00%     99.45% # attempts to use FU when none available
system.cpu.iq.fu_full::SimdSqrt                     0      0.00%     99.45% # attempts to use FU when none available
system.cpu.iq.fu_full::SimdFloatAdd                 0      0.00%     99.45% # attempts to use FU when none available
system.cpu.iq.fu_full::SimdFloatAlu                 0      0.00%     99.45% # attempts to use FU when none available
system.cpu.iq.fu_full::SimdFloatCmp                 0      0.00%     99.45% # attempts to use FU when none available
system.cpu.iq.fu_full::SimdFloatCvt                 0      0.00%     99.45% # attempts to use FU when none available
system.cpu.iq.fu_full::SimdFloatDiv                 0      0.00%     99.45% # attempts to use FU when none available
system.cpu.iq.fu_full::SimdFloatMisc                0      0.00%     99.45% # attempts to use FU when none available
system.cpu.iq.fu_full::SimdFloatMult                0      0.00%     99.45% # attempts to use FU when none available
system.cpu.iq.fu_full::SimdFloatMultAcc             0      0.00%     99.45% # attempts to use FU when none available
system.cpu.iq.fu_full::SimdFloatSqrt                0      0.00%     99.45% # attempts to use FU when none available
system.cpu.iq.fu_full::SimdAes                      0      0.00%     99.45% # attempts to use FU when none available
system.cpu.iq.fu_full::SimdAesMix                   0      0.00%     99.45% # attempts to use FU when none available
system.cpu.iq.fu_full::SimdSha1Hash                 0      0.00%     99.45% # attempts to use FU when none available
system.cpu.iq.fu_full::SimdSha1Hash2                0      0.00%     99.45% # attempts to use FU when none available
system.cpu.iq.fu_full::SimdSha256Hash               0      0.00%     99.45% # attempts to use FU when none available
system.cpu.iq.fu_full::SimdSha256Hash2              0      0.00%     99.45% # attempts to use FU when none available
system.cpu.iq.fu_full::SimdShaSigma2                0      0.00%     99.45% # attempts to use FU when none available
system.cpu.iq.fu_full::SimdShaSigma3                0      0.00%     99.45% # attempts to use FU when none available
system.cpu.iq.fu_full::MemRead                    926      0.34%     99.79% # attempts to use FU when none available
system.cpu.iq.fu_full::MemWrite                   487      0.18%     99.97% # attempts to use FU when none available
system.cpu.iq.fu_full::FloatMemRead                28      0.01%     99.98% # attempts to use FU when none available
system.cpu.iq.fu_full::FloatMemWrite               46      0.02%    100.00% # attempts to use FU when none available
system.cpu.iq.fu_full::IprAccess                    0      0.00%    100.00% # attempts to use FU when none available
system.cpu.iq.fu_full::InstPrefetch                 0      0.00%    100.00% # attempts to use FU when none available
system.cpu.iq.FU_type_0::No_OpClass              4040      0.02%      0.02% # Type of FU issued
system.cpu.iq.FU_type_0::IntAlu              16665500     80.96%     80.98% # Type of FU issued
system.cpu.iq.FU_type_0::IntMult                 1225      0.01%     80.98% # Type of FU issued
system.cpu.iq.FU_type_0::IntDiv                  1210      0.01%     80.99% # Type of FU issued
system.cpu.iq.FU_type_0::FloatAdd                 331      0.00%     80.99% # Type of FU issued
system.cpu.iq.FU_type_0::FloatCmp                   0      0.00%     80.99% # Type of FU issued
system.cpu.iq.FU_type_0::FloatCvt                   0      0.00%     80.99% # Type of FU issued
system.cpu.iq.FU_type_0::FloatMult                  0      0.00%     80.99% # Type of FU issued
system.cpu.iq.FU_type_0::FloatMultAcc               0      0.00%     80.99% # Type of FU issued
system.cpu.iq.FU_type_0::FloatDiv                   0      0.00%     80.99% # Type of FU issued
system.cpu.iq.FU_type_0::FloatMisc                  0      0.00%     80.99% # Type of FU issued
system.cpu.iq.FU_type_0::FloatSqrt                  0      0.00%     80.99% # Type of FU issued
system.cpu.iq.FU_type_0::SimdAdd               500506      2.43%     83.42% # Type of FU issued
system.cpu.iq.FU_type_0::SimdAddAcc                 0      0.00%     83.42% # Type of FU issued
system.cpu.iq.FU_type_0::SimdAlu               126127      0.61%     84.04% # Type of FU issued
system.cpu.iq.FU_type_0::SimdCmp                    6      0.00%     84.04% # Type of FU issued
system.cpu.iq.FU_type_0::SimdCvt               126278      0.61%     84.65% # Type of FU issued
system.cpu.iq.FU_type_0::SimdMisc              750693      3.65%     88.30% # Type of FU issued
system.cpu.iq.FU_type_0::SimdMult                   0      0.00%     88.30% # Type of FU issued
system.cpu.iq.FU_type_0::SimdMultAcc                0      0.00%     88.30% # Type of FU issued
system.cpu.iq.FU_type_0::SimdShift                367      0.00%     88.30% # Type of FU issued
system.cpu.iq.FU_type_0::SimdShiftAcc               0      0.00%     88.30% # Type of FU issued
system.cpu.iq.FU_type_0::SimdSqrt                   0      0.00%     88.30% # Type of FU issued
system.cpu.iq.FU_type_0::SimdFloatAdd               0      0.00%     88.30% # Type of FU issued
system.cpu.iq.FU_type_0::SimdFloatAlu               0      0.00%     88.30% # Type of FU issued
system.cpu.iq.FU_type_0::SimdFloatCmp               0      0.00%     88.30% # Type of FU issued
system.cpu.iq.FU_type_0::SimdFloatCvt               0      0.00%     88.30% # Type of FU issued
system.cpu.iq.FU_type_0::SimdFloatDiv               0      0.00%     88.30% # Type of FU issued
system.cpu.iq.FU_type_0::SimdFloatMisc              0      0.00%     88.30% # Type of FU issued
system.cpu.iq.FU_type_0::SimdFloatMult              0      0.00%     88.30% # Type of FU issued
system.cpu.iq.FU_type_0::SimdFloatMultAcc            0      0.00%     88.30% # Type of FU issued
system.cpu.iq.FU_type_0::SimdFloatSqrt              0      0.00%     88.30% # Type of FU issued
system.cpu.iq.FU_type_0::SimdAes                    0      0.00%     88.30% # Type of FU issued
system.cpu.iq.FU_type_0::SimdAesMix                 0      0.00%     88.30% # Type of FU issued
system.cpu.iq.FU_type_0::SimdSha1Hash               0      0.00%     88.30% # Type of FU issued
system.cpu.iq.FU_type_0::SimdSha1Hash2              0      0.00%     88.30% # Type of FU issued
system.cpu.iq.FU_type_0::SimdSha256Hash             0      0.00%     88.30% # Type of FU issued
system.cpu.iq.FU_type_0::SimdSha256Hash2            0      0.00%     88.30% # Type of FU issued
system.cpu.iq.FU_type_0::SimdShaSigma2              0      0.00%     88.30% # Type of FU issued
system.cpu.iq.FU_type_0::SimdShaSigma3              0      0.00%     88.30% # Type of FU issued
system.cpu.iq.FU_type_0::MemRead                68197      0.33%     88.63% # Type of FU issued
system.cpu.iq.FU_type_0::MemWrite             2213349     10.75%     99.38% # Type of FU issued
system.cpu.iq.FU_type_0::FloatMemRead          127088      0.62%    100.00% # Type of FU issued
system.cpu.iq.FU_type_0::FloatMemWrite            473      0.00%    100.00% # Type of FU issued
system.cpu.iq.FU_type_0::IprAccess                  0      0.00%    100.00% # Type of FU issued
system.cpu.iq.FU_type_0::InstPrefetch               0      0.00%    100.00% # Type of FU issued
system.cpu.iq.FU_type_0::total               20585390                       # Type of FU issued
system.cpu.iq.rate                           0.791875                       # Inst issue rate
system.cpu.iq.fu_busy_cnt                      270167                       # FU busy when requested
system.cpu.iq.fu_busy_rate                   0.013124                       # FU busy rate (busy events/executed inst)
system.cpu.iq.int_inst_queue_reads           63143562                       # Number of integer instruction queue reads
system.cpu.iq.int_inst_queue_writes          18986609                       # Number of integer instruction queue writes
system.cpu.iq.int_inst_queue_wakeup_accesses     18548101                       # Number of integer instruction queue wakeup accesses
system.cpu.iq.fp_inst_queue_reads             4232618                       # Number of floating instruction queue reads
system.cpu.iq.fp_inst_queue_writes            2015357                       # Number of floating instruction queue writes
system.cpu.iq.fp_inst_queue_wakeup_accesses      2006210                       # Number of floating instruction queue wakeup accesses
system.cpu.iq.vec_inst_queue_reads                  0                       # Number of vector instruction queue reads
system.cpu.iq.vec_inst_queue_writes                 0                       # Number of vector instruction queue writes
system.cpu.iq.vec_inst_queue_wakeup_accesses            0                       # Number of vector instruction queue wakeup accesses
system.cpu.iq.int_alu_accesses               18625954                       # Number of integer alu accesses
system.cpu.iq.fp_alu_accesses                 2225563                       # Number of floating point alu accesses
system.cpu.iq.vec_alu_accesses                      0                       # Number of vector alu accesses
system.cpu.iew.lsq.thread0.forwLoads             2410                       # Number of loads that had data forwarded from stores
system.cpu.iew.lsq.thread0.invAddrLoads             0                       # Number of loads ignored due to an invalid address
system.cpu.iew.lsq.thread0.squashedLoads        41309                       # Number of loads squashed
system.cpu.iew.lsq.thread0.ignoredResponses           20                       # Number of memory responses ignored because the instruction is squashed
system.cpu.iew.lsq.thread0.memOrderViolation           47                       # Number of memory ordering violations
system.cpu.iew.lsq.thread0.squashedStores         9126                       # Number of stores squashed
system.cpu.iew.lsq.thread0.invAddrSwpfs             0                       # Number of software prefetches ignored due to an invalid address
system.cpu.iew.lsq.thread0.blockedLoads             0                       # Number of blocked loads due to partial load-store forwarding
system.cpu.iew.lsq.thread0.rescheduledLoads            4                       # Number of loads that were rescheduled
system.cpu.iew.lsq.thread0.cacheBlocked           250                       # Number of times an access to memory failed due to the cache being blocked
system.cpu.iew.iewIdleCycles                        0                       # Number of cycles IEW is idle
system.cpu.iew.iewSquashCycles                   8117                       # Number of cycles IEW is squashing
system.cpu.iew.iewBlockCycles                  351167                       # Number of cycles IEW is blocking
system.cpu.iew.iewUnblockCycles               6502595                       # Number of cycles IEW is unblocking
system.cpu.iew.iewDispatchedInsts            20683299                       # Number of instructions dispatched to IQ
system.cpu.iew.iewDispSquashedInsts               357                       # Number of squashed instructions skipped by dispatch
system.cpu.iew.iewDispLoadInsts                202690                       # Number of dispatched load instructions
system.cpu.iew.iewDispStoreInsts              2217705                       # Number of dispatched store instructions
system.cpu.iew.iewDispNonSpecInsts                 78                       # Number of dispatched non-speculative instructions
system.cpu.iew.iewIQFullEvents                    932                       # Number of times the IQ has become full, causing a stall
system.cpu.iew.iewLSQFullEvents               6501440                       # Number of times the LSQ has become full, causing a stall
system.cpu.iew.memOrderViolationEvents             47                       # Number of memory order violations
system.cpu.iew.predictedTakenIncorrect           2312                       # Number of branches that were predicted taken incorrectly
system.cpu.iew.predictedNotTakenIncorrect         8018                       # Number of branches that were predicted not taken incorrectly
system.cpu.iew.branchMispredicts                10330                       # Number of branch mispredicts detected at execute
system.cpu.iew.iewExecutedInsts              20567357                       # Number of executed instructions
system.cpu.iew.iewExecLoadInsts                191377                       # Number of load instructions executed
system.cpu.iew.iewExecSquashedInsts             18033                       # Number of squashed instructions skipped in execute
system.cpu.iew.exec_swp                             0                       # number of swp insts executed
system.cpu.iew.exec_nop                             0                       # number of nop insts executed
system.cpu.iew.exec_refs                      2404283                       # number of memory reference insts executed
system.cpu.iew.exec_branches                  2306224                       # Number of branches executed
system.cpu.iew.exec_stores                    2212906                       # Number of stores executed
system.cpu.iew.exec_rate                     0.791182                       # Inst execution rate
system.cpu.iew.wb_sent                       20559759                       # cumulative count of insts sent to commit
system.cpu.iew.wb_count                      20554311                       # cumulative count of insts written-back
system.cpu.iew.wb_producers                  11854984                       # num instructions producing a value
system.cpu.iew.wb_consumers                  17980290                       # num instructions consuming a value
system.cpu.iew.wb_rate                       0.790680                       # insts written-back per cycle
system.cpu.iew.wb_fanout                     0.659332                       # average fanout of values written-back
system.cpu.commit.commitSquashedInsts          319695                       # The number of squashed insts skipped by commit
system.cpu.commit.commitNonSpecStalls              44                       # The number of times commit has been forced to stall to communicate backwards
system.cpu.commit.branchMispredicts              8083                       # The number of times a branch was mispredicted
system.cpu.commit.committed_per_cycle::samples     25884948                       # Number of insts commited each cycle
system.cpu.commit.committed_per_cycle::mean     0.786738                       # Number of insts commited each cycle
system.cpu.commit.committed_per_cycle::stdev     1.861297                       # Number of insts commited each cycle
system.cpu.commit.committed_per_cycle::underflows            0      0.00%      0.00% # Number of insts commited each cycle
system.cpu.commit.committed_per_cycle::0     20632567     79.71%     79.71% # Number of insts commited each cycle
system.cpu.commit.committed_per_cycle::1       795190      3.07%     82.78% # Number of insts commited each cycle
system.cpu.commit.committed_per_cycle::2      1006917      3.89%     86.67% # Number of insts commited each cycle
system.cpu.commit.committed_per_cycle::3      1055190      4.08%     90.75% # Number of insts commited each cycle
system.cpu.commit.committed_per_cycle::4        37637      0.15%     90.89% # Number of insts commited each cycle
system.cpu.commit.committed_per_cycle::5      1527221      5.90%     96.79% # Number of insts commited each cycle
system.cpu.commit.committed_per_cycle::6        18533      0.07%     96.86% # Number of insts commited each cycle
system.cpu.commit.committed_per_cycle::7         1314      0.01%     96.87% # Number of insts commited each cycle
system.cpu.commit.committed_per_cycle::8       810379      3.13%    100.00% # Number of insts commited each cycle
system.cpu.commit.committed_per_cycle::overflows            0      0.00%    100.00% # Number of insts commited each cycle
system.cpu.commit.committed_per_cycle::min_value            0                       # Number of insts commited each cycle
system.cpu.commit.committed_per_cycle::max_value            8                       # Number of insts commited each cycle
system.cpu.commit.committed_per_cycle::total     25884948                       # Number of insts commited each cycle
system.cpu.commit.committedInsts             12389443                       # Number of instructions committed
system.cpu.commit.committedOps               20364675                       # Number of ops (including micro ops) committed
system.cpu.commit.swp_count                         0                       # Number of s/w prefetches committed
system.cpu.commit.refs                        2369960                       # Number of memory references committed
system.cpu.commit.loads                        161381                       # Number of loads committed
system.cpu.commit.membars                           8                       # Number of memory barriers committed
system.cpu.commit.branches                    2292533                       # Number of branches committed
system.cpu.commit.vec_insts                         0                       # Number of committed Vector instructions.
system.cpu.commit.fp_insts                    2003575                       # Number of committed floating point instructions.
system.cpu.commit.int_insts                  18486083                       # Number of committed integer instructions.
system.cpu.commit.function_calls                  665                       # Number of function calls committed.
system.cpu.commit.op_class_0::No_OpClass         1498      0.01%      0.01% # Class of committed instruction
system.cpu.commit.op_class_0::IntAlu         16488742     80.97%     80.97% # Class of committed instruction
system.cpu.commit.op_class_0::IntMult            1015      0.00%     80.98% # Class of committed instruction
system.cpu.commit.op_class_0::IntDiv             1142      0.01%     80.99% # Class of committed instruction
system.cpu.commit.op_class_0::FloatAdd             29      0.00%     80.99% # Class of committed instruction
system.cpu.commit.op_class_0::FloatCmp              0      0.00%     80.99% # Class of committed instruction
system.cpu.commit.op_class_0::FloatCvt              0      0.00%     80.99% # Class of committed instruction
system.cpu.commit.op_class_0::FloatMult             0      0.00%     80.99% # Class of committed instruction
system.cpu.commit.op_class_0::FloatMultAcc            0      0.00%     80.99% # Class of committed instruction
system.cpu.commit.op_class_0::FloatDiv              0      0.00%     80.99% # Class of committed instruction
system.cpu.commit.op_class_0::FloatMisc             0      0.00%     80.99% # Class of committed instruction
system.cpu.commit.op_class_0::FloatSqrt             0      0.00%     80.99% # Class of committed instruction
system.cpu.commit.op_class_0::SimdAdd          500322      2.46%     83.44% # Class of committed instruction
system.cpu.commit.op_class_0::SimdAddAcc            0      0.00%     83.44% # Class of committed instruction
system.cpu.commit.op_class_0::SimdAlu          125493      0.62%     84.06% # Class of committed instruction
system.cpu.commit.op_class_0::SimdCmp               6      0.00%     84.06% # Class of committed instruction
system.cpu.commit.op_class_0::SimdCvt          125754      0.62%     84.68% # Class of committed instruction
system.cpu.commit.op_class_0::SimdMisc         750531      3.69%     88.36% # Class of committed instruction
system.cpu.commit.op_class_0::SimdMult              0      0.00%     88.36% # Class of committed instruction
system.cpu.commit.op_class_0::SimdMultAcc            0      0.00%     88.36% # Class of committed instruction
system.cpu.commit.op_class_0::SimdShift           183      0.00%     88.36% # Class of committed instruction
system.cpu.commit.op_class_0::SimdShiftAcc            0      0.00%     88.36% # Class of committed instruction
system.cpu.commit.op_class_0::SimdSqrt              0      0.00%     88.36% # Class of committed instruction
system.cpu.commit.op_class_0::SimdFloatAdd            0      0.00%     88.36% # Class of committed instruction
system.cpu.commit.op_class_0::SimdFloatAlu            0      0.00%     88.36% # Class of committed instruction
system.cpu.commit.op_class_0::SimdFloatCmp            0      0.00%     88.36% # Class of committed instruction
system.cpu.commit.op_class_0::SimdFloatCvt            0      0.00%     88.36% # Class of committed instruction
system.cpu.commit.op_class_0::SimdFloatDiv            0      0.00%     88.36% # Class of committed instruction
system.cpu.commit.op_class_0::SimdFloatMisc            0      0.00%     88.36% # Class of committed instruction
system.cpu.commit.op_class_0::SimdFloatMult            0      0.00%     88.36% # Class of committed instruction
system.cpu.commit.op_class_0::SimdFloatMultAcc            0      0.00%     88.36% # Class of committed instruction
system.cpu.commit.op_class_0::SimdFloatSqrt            0      0.00%     88.36% # Class of committed instruction
system.cpu.commit.op_class_0::SimdAes               0      0.00%     88.36% # Class of committed instruction
system.cpu.commit.op_class_0::SimdAesMix            0      0.00%     88.36% # Class of committed instruction
system.cpu.commit.op_class_0::SimdSha1Hash            0      0.00%     88.36% # Class of committed instruction
system.cpu.commit.op_class_0::SimdSha1Hash2            0      0.00%     88.36% # Class of committed instruction
system.cpu.commit.op_class_0::SimdSha256Hash            0      0.00%     88.36% # Class of committed instruction
system.cpu.commit.op_class_0::SimdSha256Hash2            0      0.00%     88.36% # Class of committed instruction
system.cpu.commit.op_class_0::SimdShaSigma2            0      0.00%     88.36% # Class of committed instruction
system.cpu.commit.op_class_0::SimdShaSigma3            0      0.00%     88.36% # Class of committed instruction
system.cpu.commit.op_class_0::MemRead           35571      0.17%     88.54% # Class of committed instruction
system.cpu.commit.op_class_0::MemWrite        2208195     10.84%     99.38% # Class of committed instruction
system.cpu.commit.op_class_0::FloatMemRead       125810      0.62%    100.00% # Class of committed instruction
system.cpu.commit.op_class_0::FloatMemWrite          384      0.00%    100.00% # Class of committed instruction
system.cpu.commit.op_class_0::IprAccess             0      0.00%    100.00% # Class of committed instruction
system.cpu.commit.op_class_0::InstPrefetch            0      0.00%    100.00% # Class of committed instruction
system.cpu.commit.op_class_0::total          20364675                       # Class of committed instruction
system.cpu.commit.bw_lim_events                810379                       # number cycles where commit BW limit reached
system.cpu.rob.rob_reads                     45758939                       # The number of ROB reads
system.cpu.rob.rob_writes                    41416925                       # The number of ROB writes
system.cpu.timesIdled                             659                       # Number of times that the entire CPU went into an idle state and unscheduled itself
system.cpu.idleCycles                           63148                       # Total number of cycles that the CPU has spent unscheduled due to idling
system.cpu.committedInsts                    12389443                       # Number of Instructions Simulated
system.cpu.committedOps                      20364675                       # Number of Ops (including micro ops) Simulated
system.cpu.cpi                               2.098218                       # CPI: Cycles Per Instruction
system.cpu.cpi_total                         2.098218                       # CPI: Total CPI of All Threads
system.cpu.ipc                               0.476595                       # IPC: Instructions Per Cycle
system.cpu.ipc_total                         0.476595                       # IPC: Total IPC of All Threads
system.cpu.int_regfile_reads                 27780194                       # number of integer regfile reads
system.cpu.int_regfile_writes                14033270                       # number of integer regfile writes
system.cpu.fp_regfile_reads                   4384664                       # number of floating regfile reads
system.cpu.fp_regfile_writes                  2005350                       # number of floating regfile writes
system.cpu.cc_regfile_reads                  11549275                       # number of cc regfile reads
system.cpu.cc_regfile_writes                 13739140                       # number of cc regfile writes
system.cpu.misc_regfile_reads                 7037011                       # number of misc regfile reads
system.cpu.dcache.tags.pwrStateResidencyTicks::UNDEFINED  17339162582                       # Cumulative time (in ticks) in various power states
system.cpu.dcache.tags.tagsinuse          1020.974441                       # Cycle average of tags in use
system.cpu.dcache.tags.total_refs             2337158                       # Total number of references to valid blocks.
system.cpu.dcache.tags.sampled_refs            780266                       # Sample count of references to valid blocks.
system.cpu.dcache.tags.avg_refs              2.995335                       # Average number of references to valid blocks.
system.cpu.dcache.tags.warmup_cycle            191429                       # Cycle when the warmup percentage was hit.
system.cpu.dcache.tags.occ_blocks::.cpu.data  1020.974441                       # Average occupied blocks per requestor
system.cpu.dcache.tags.occ_percent::.cpu.data     0.997045                       # Average percentage of cache occupancy
system.cpu.dcache.tags.occ_percent::total     0.997045                       # Average percentage of cache occupancy
system.cpu.dcache.tags.occ_task_id_blocks::1024         1024                       # Occupied blocks per task id
system.cpu.dcache.tags.age_task_id_blocks_1024::0           38                       # Occupied blocks per task id
system.cpu.dcache.tags.age_task_id_blocks_1024::1          818                       # Occupied blocks per task id
system.cpu.dcache.tags.age_task_id_blocks_1024::2           40                       # Occupied blocks per task id
system.cpu.dcache.tags.age_task_id_blocks_1024::4          128                       # Occupied blocks per task id
system.cpu.dcache.tags.occ_task_id_percent::1024            1                       # Percentage of cache occupancy per task id
system.cpu.dcache.tags.tag_accesses          19945498                       # Number of tag accesses
system.cpu.dcache.tags.data_accesses         19945498                       # Number of data accesses
system.cpu.dcache.pwrStateResidencyTicks::UNDEFINED  17339162582                       # Cumulative time (in ticks) in various power states
system.cpu.dcache.ReadReq_hits::.cpu.data       110601                       # number of ReadReq hits
system.cpu.dcache.ReadReq_hits::total          110601                       # number of ReadReq hits
system.cpu.dcache.WriteReq_hits::.cpu.data      1446291                       # number of WriteReq hits
system.cpu.dcache.WriteReq_hits::total        1446291                       # number of WriteReq hits
system.cpu.dcache.demand_hits::.cpu.data      1556892                       # number of demand (read+write) hits
system.cpu.dcache.demand_hits::total          1556892                       # number of demand (read+write) hits
system.cpu.dcache.overall_hits::.cpu.data      1556892                       # number of overall hits
system.cpu.dcache.overall_hits::total         1556892                       # number of overall hits
system.cpu.dcache.ReadReq_misses::.cpu.data        76474                       # number of ReadReq misses
system.cpu.dcache.ReadReq_misses::total         76474                       # number of ReadReq misses
system.cpu.dcache.WriteReq_misses::.cpu.data       762288                       # number of WriteReq misses
system.cpu.dcache.WriteReq_misses::total       762288                       # number of WriteReq misses
system.cpu.dcache.demand_misses::.cpu.data       838762                       # number of demand (read+write) misses
system.cpu.dcache.demand_misses::total         838762                       # number of demand (read+write) misses
system.cpu.dcache.overall_misses::.cpu.data       838762                       # number of overall misses
system.cpu.dcache.overall_misses::total        838762                       # number of overall misses
system.cpu.dcache.ReadReq_miss_latency::.cpu.data   1916151597                       # number of ReadReq miss cycles
system.cpu.dcache.ReadReq_miss_latency::total   1916151597                       # number of ReadReq miss cycles
system.cpu.dcache.WriteReq_miss_latency::.cpu.data  14700165743                       # number of WriteReq miss cycles
system.cpu.dcache.WriteReq_miss_latency::total  14700165743                       # number of WriteReq miss cycles
system.cpu.dcache.demand_miss_latency::.cpu.data  16616317340                       # number of demand (read+write) miss cycles
system.cpu.dcache.demand_miss_latency::total  16616317340                       # number of demand (read+write) miss cycles
system.cpu.dcache.overall_miss_latency::.cpu.data  16616317340                       # number of overall miss cycles
system.cpu.dcache.overall_miss_latency::total  16616317340                       # number of overall miss cycles
system.cpu.dcache.ReadReq_accesses::.cpu.data       187075                       # number of ReadReq accesses(hits+misses)
system.cpu.dcache.ReadReq_accesses::total       187075                       # number of ReadReq accesses(hits+misses)
[...]
system.l2.WritebackClean_accesses::total          248                       # number of WritebackClean accesses(hits+misses)
system.l2.ReadExReq_accesses::.cpu.data        762282                       # number of ReadExReq accesses(hits+misses)
system.l2.ReadExReq_accesses::total            762282                       # number of ReadExReq accesses(hits+misses)
system.l2.ReadCleanReq_accesses::.cpu.inst         1098                       # number of ReadCleanReq accesses(hits+misses)
system.l2.ReadCleanReq_accesses::total           1098                       # number of ReadCleanReq accesses(hits+misses)
system.l2.ReadSharedReq_accesses::.cpu.data        17984                       # number of ReadSharedReq accesses(hits+misses)
system.l2.ReadSharedReq_accesses::total         17984                       # number of ReadSharedReq accesses(hits+misses)
system.l2.demand_accesses::.cpu.inst             1098                       # number of demand (read+write) accesses
system.l2.demand_accesses::.cpu.data           780266                       # number of demand (read+write) accesses
system.l2.demand_accesses::total               781364                       # number of demand (read+write) accesses
system.l2.overall_accesses::.cpu.inst            1098                       # number of overall (read+write) accesses
system.l2.overall_accesses::.cpu.data          780266                       # number of overall (read+write) accesses
system.l2.overall_accesses::total              781364                       # number of overall (read+write) accesses
system.l2.ReadExReq_miss_rate::.cpu.data     0.021083                       # miss rate for ReadExReq accesses
system.l2.ReadExReq_miss_rate::total         0.021083                       # miss rate for ReadExReq accesses
system.l2.ReadCleanReq_miss_rate::.cpu.inst     0.988160                       # miss rate for ReadCleanReq accesses
system.l2.ReadCleanReq_miss_rate::total      0.988160                       # miss rate for ReadCleanReq accesses
system.l2.ReadSharedReq_miss_rate::.cpu.data     0.108207                       # miss rate for ReadSharedReq accesses
system.l2.ReadSharedReq_miss_rate::total     0.108207                       # miss rate for ReadSharedReq accesses
system.l2.demand_miss_rate::.cpu.inst        0.988160                       # miss rate for demand accesses
system.l2.demand_miss_rate::.cpu.data        0.023091                       # miss rate for demand accesses
system.l2.demand_miss_rate::total            0.024447                       # miss rate for demand accesses
system.l2.overall_miss_rate::.cpu.inst       0.988160                       # miss rate for overall accesses
system.l2.overall_miss_rate::.cpu.data       0.023091                       # miss rate for overall accesses
system.l2.overall_miss_rate::total           0.024447                       # miss rate for overall accesses
system.l2.ReadExReq_avg_miss_latency::.cpu.data 83372.758820                       # average ReadExReq miss latency
system.l2.ReadExReq_avg_miss_latency::total 83372.758820                       # average ReadExReq miss latency
system.l2.ReadCleanReq_avg_miss_latency::.cpu.inst 87965.312442                       # average ReadCleanReq miss latency
system.l2.ReadCleanReq_avg_miss_latency::total 87965.312442                       # average ReadCleanReq miss latency
system.l2.ReadSharedReq_avg_miss_latency::.cpu.data 88073.134121                       # average ReadSharedReq miss latency
system.l2.ReadSharedReq_avg_miss_latency::total 88073.134121                       # average ReadSharedReq miss latency
system.l2.demand_avg_miss_latency::.cpu.inst 87965.312442                       # average overall miss latency
system.l2.demand_avg_miss_latency::.cpu.data 83880.442138                       # average overall miss latency
system.l2.demand_avg_miss_latency::total 84112.464140                       # average overall miss latency
system.l2.overall_avg_miss_latency::.cpu.inst 87965.312442                       # average overall miss latency
system.l2.overall_avg_miss_latency::.cpu.data 83880.442138                       # average overall miss latency
system.l2.overall_avg_miss_latency::total 84112.464140                       # average overall miss latency
system.l2.blocked_cycles::no_mshrs                  0                       # number of cycles access was blocked
system.l2.blocked_cycles::no_targets                0                       # number of cycles access was blocked
system.l2.blocked::no_mshrs                         0                       # number of cycles access was blocked
system.l2.blocked::no_targets                       0                       # number of cycles access was blocked
system.l2.avg_blocked_cycles::no_mshrs            nan                       # average number of cycles each access was blocked
system.l2.avg_blocked_cycles::no_targets          nan                       # average number of cycles each access was blocked
system.l2.ReadExReq_mshr_misses::.cpu.data        16071                       # number of ReadExReq MSHR misses
system.l2.ReadExReq_mshr_misses::total          16071                       # number of ReadExReq MSHR misses
system.l2.ReadCleanReq_mshr_misses::.cpu.inst         1085                       # number of ReadCleanReq MSHR misses
system.l2.ReadCleanReq_mshr_misses::total         1085                       # number of ReadCleanReq MSHR misses
system.l2.ReadSharedReq_mshr_misses::.cpu.data         1946                       # number of ReadSharedReq MSHR misses
system.l2.ReadSharedReq_mshr_misses::total         1946                       # number of ReadSharedReq MSHR misses
system.l2.demand_mshr_misses::.cpu.inst          1085                       # number of demand (read+write) MSHR misses
system.l2.demand_mshr_misses::.cpu.data         18017                       # number of demand (read+write) MSHR misses
system.l2.demand_mshr_misses::total             19102                       # number of demand (read+write) MSHR misses
system.l2.overall_mshr_misses::.cpu.inst         1085                       # number of overall MSHR misses
system.l2.overall_mshr_misses::.cpu.data        18017                       # number of overall MSHR misses
system.l2.overall_mshr_misses::total            19102                       # number of overall MSHR misses
system.l2.ReadExReq_mshr_miss_latency::.cpu.data   1125496467                       # number of ReadExReq MSHR miss cycles
system.l2.ReadExReq_mshr_miss_latency::total   1125496467                       # number of ReadExReq MSHR miss cycles
system.l2.ReadCleanReq_mshr_miss_latency::.cpu.inst     80968464                       # number of ReadCleanReq MSHR miss cycles
system.l2.ReadCleanReq_mshr_miss_latency::total     80968464                       # number of ReadCleanReq MSHR miss cycles
system.l2.ReadSharedReq_mshr_miss_latency::.cpu.data    145430679                       # number of ReadSharedReq MSHR miss cycles
system.l2.ReadSharedReq_mshr_miss_latency::total    145430679                       # number of ReadSharedReq MSHR miss cycles
system.l2.demand_mshr_miss_latency::.cpu.inst     80968464                       # number of demand (read+write) MSHR miss cycles
system.l2.demand_mshr_miss_latency::.cpu.data   1270927146                       # number of demand (read+write) MSHR miss cycles
system.l2.demand_mshr_miss_latency::total   1351895610                       # number of demand (read+write) MSHR miss cycles
system.l2.overall_mshr_miss_latency::.cpu.inst     80968464                       # number of overall MSHR miss cycles
system.l2.overall_mshr_miss_latency::.cpu.data   1270927146                       # number of overall MSHR miss cycles
system.l2.overall_mshr_miss_latency::total   1351895610                       # number of overall MSHR miss cycles
system.l2.ReadExReq_mshr_miss_rate::.cpu.data     0.021083                       # mshr miss rate for ReadExReq accesses
system.l2.ReadExReq_mshr_miss_rate::total     0.021083                       # mshr miss rate for ReadExReq accesses
system.l2.ReadCleanReq_mshr_miss_rate::.cpu.inst     0.988160                       # mshr miss rate for ReadCleanReq accesses
system.l2.ReadCleanReq_mshr_miss_rate::total     0.988160                       # mshr miss rate for ReadCleanReq accesses
system.l2.ReadSharedReq_mshr_miss_rate::.cpu.data     0.108207                       # mshr miss rate for ReadSharedReq accesses
system.l2.ReadSharedReq_mshr_miss_rate::total     0.108207                       # mshr miss rate for ReadSharedReq accesses
system.l2.demand_mshr_miss_rate::.cpu.inst     0.988160                       # mshr miss rate for demand accesses
system.l2.demand_mshr_miss_rate::.cpu.data     0.023091                       # mshr miss rate for demand accesses
system.l2.demand_mshr_miss_rate::total       0.024447                       # mshr miss rate for demand accesses
system.l2.overall_mshr_miss_rate::.cpu.inst     0.988160                       # mshr miss rate for overall accesses
system.l2.overall_mshr_miss_rate::.cpu.data     0.023091                       # mshr miss rate for overall accesses
system.l2.overall_mshr_miss_rate::total      0.024447                       # mshr miss rate for overall accesses
system.l2.ReadExReq_avg_mshr_miss_latency::.cpu.data 70032.758820                       # average ReadExReq mshr miss latency
system.l2.ReadExReq_avg_mshr_miss_latency::total 70032.758820                       # average ReadExReq mshr miss latency
system.l2.ReadCleanReq_avg_mshr_miss_latency::.cpu.inst 74625.312442                       # average ReadCleanReq mshr miss latency
system.l2.ReadCleanReq_avg_mshr_miss_latency::total 74625.312442                       # average ReadCleanReq mshr miss latency
system.l2.ReadSharedReq_avg_mshr_miss_latency::.cpu.data 74733.134121                       # average ReadSharedReq mshr miss latency
system.l2.ReadSharedReq_avg_mshr_miss_latency::total 74733.134121                       # average ReadSharedReq mshr miss latency
system.l2.demand_avg_mshr_miss_latency::.cpu.inst 74625.312442                       # average overall mshr miss latency
system.l2.demand_avg_mshr_miss_latency::.cpu.data 70540.442138                       # average overall mshr miss latency
system.l2.demand_avg_mshr_miss_latency::total 70772.464140                       # average overall mshr miss latency
system.l2.overall_avg_mshr_miss_latency::.cpu.inst 74625.312442                       # average overall mshr miss latency
system.l2.overall_avg_mshr_miss_latency::.cpu.data 70540.442138                       # average overall mshr miss latency
system.l2.overall_avg_mshr_miss_latency::total 70772.464140                       # average overall mshr miss latency
system.l2.replacements                              0                       # number of replacements
system.membus.snoop_filter.tot_requests         19102                       # Total number of requests made to the snoop filter.
system.membus.snoop_filter.hit_single_requests            0                       # Number of requests hitting in the snoop filter with a single holder of the requested data.
system.membus.snoop_filter.hit_multi_requests            0                       # Number of requests hitting in the snoop filter with multiple (>1) holders of the requested data.
system.membus.snoop_filter.tot_snoops               0                       # Total number of snoops made to the snoop filter.
system.membus.snoop_filter.hit_single_snoops            0                       # Number of snoops hitting in the snoop filter with a single holder of the requested data.
system.membus.snoop_filter.hit_multi_snoops            0                       # Number of snoops hitting in the snoop filter with multiple (>1) holders of the requested data.
system.membus.pwrStateResidencyTicks::UNDEFINED  17339162582                       # Cumulative time (in ticks) in various power states
system.membus.trans_dist::ReadResp               3031                       # Transaction distribution
system.membus.trans_dist::ReadExReq             16071                       # Transaction distribution
system.membus.trans_dist::ReadExResp            16071                       # Transaction distribution
system.membus.trans_dist::ReadSharedReq          3031                       # Transaction distribution
system.membus.pkt_count_system.l2.mem_side::system.mem_ctrls.port        38204                       # Packet count per connected master and slave (bytes)
system.membus.pkt_count_system.l2.mem_side::total        38204                       # Packet count per connected master and slave (bytes)
system.membus.pkt_count::total                  38204                       # Packet count per connected master and slave (bytes)
system.membus.pkt_size_system.l2.mem_side::system.mem_ctrls.port      1222528                       # Cumulative packet size per connected master and slave (bytes)
system.membus.pkt_size_system.l2.mem_side::total      1222528                       # Cumulative packet size per connected master and slave (bytes)
system.membus.pkt_size::total                 1222528                       # Cumulative packet size per connected master and slave (bytes)
system.membus.snoops                                0                       # Total snoops (count)
system.membus.snoopTraffic                          0                       # Total snoop traffic (bytes)
system.membus.snoop_fanout::samples             19102                       # Request fanout histogram
system.membus.snoop_fanout::mean                    0                       # Request fanout histogram
system.membus.snoop_fanout::stdev                   0                       # Request fanout histogram
system.membus.snoop_fanout::underflows              0      0.00%      0.00% # Request fanout histogram
system.membus.snoop_fanout::0                   19102    100.00%    100.00% # Request fanout histogram
system.membus.snoop_fanout::1                       0      0.00%    100.00% # Request fanout histogram
system.membus.snoop_fanout::overflows               0      0.00%    100.00% # Request fanout histogram
system.membus.snoop_fanout::min_value               0                       # Request fanout histogram
system.membus.snoop_fanout::max_value               0                       # Request fanout histogram
system.membus.snoop_fanout::total               19102                       # Request fanout histogram
system.membus.reqLayer2.occupancy            12741034                       # Layer occupancy (ticks)
system.membus.reqLayer2.utilization               0.1                       # Layer utilization (%)
system.membus.respLayer1.occupancy           74514789                       # Layer occupancy (ticks)
system.membus.respLayer1.utilization              0.4                       # Layer utilization (%)
system.tol2bus.snoop_filter.tot_requests      1560855                       # Total number of requests made to the snoop filter.
system.tol2bus.snoop_filter.hit_single_requests       779494                       # Number of requests hitting in the snoop filter with a single holder of the requested data.
system.tol2bus.snoop_filter.hit_multi_requests            4                       # Number of requests hitting in the snoop filter with multiple (>1) holders of the requested data.
system.tol2bus.snoop_filter.tot_snoops              0                       # Total number of snoops made to the snoop filter.
system.tol2bus.snoop_filter.hit_single_snoops            0                       # Number of snoops hitting in the snoop filter with a single holder of the requested data.
system.tol2bus.snoop_filter.hit_multi_snoops            0                       # Number of snoops hitting in the snoop filter with multiple (>1) holders of the requested data.
system.tol2bus.pwrStateResidencyTicks::UNDEFINED  17339162582                       # Cumulative time (in ticks) in various power states
system.tol2bus.trans_dist::ReadResp             19082                       # Transaction distribution
system.tol2bus.trans_dist::WritebackDirty       777293                       # Transaction distribution
system.tol2bus.trans_dist::WritebackClean          249                       # Transaction distribution
system.tol2bus.trans_dist::CleanEvict            1949                       # Transaction distribution
system.tol2bus.trans_dist::ReadExReq           762282                       # Transaction distribution
system.tol2bus.trans_dist::ReadExResp          762282                       # Transaction distribution
system.tol2bus.trans_dist::ReadCleanReq          1098                       # Transaction distribution
system.tol2bus.trans_dist::ReadSharedReq        17984                       # Transaction distribution
system.tol2bus.pkt_count_system.cpu.icache.mem_side::system.l2.cpu_side         2445                       # Packet count per connected master and slave (bytes)
system.tol2bus.pkt_count_system.cpu.dcache.mem_side::system.l2.cpu_side      2339774                       # Packet count per connected master and slave (bytes)
system.tol2bus.pkt_count::total               2342219                       # Packet count per connected master and slave (bytes)
system.tol2bus.pkt_size_system.cpu.icache.mem_side::system.l2.cpu_side        86208                       # Cumulative packet size per connected master and slave (bytes)
system.tol2bus.pkt_size_system.cpu.dcache.mem_side::system.l2.cpu_side     99683776                       # Cumulative packet size per connected master and slave (bytes)
system.tol2bus.pkt_size::total               99769984                       # Cumulative packet size per connected master and slave (bytes)
system.tol2bus.snoops                               0                       # Total snoops (count)
system.tol2bus.snoopTraffic                         0                       # Total snoop traffic (bytes)
system.tol2bus.snoop_fanout::samples           781364                       # Request fanout histogram
system.tol2bus.snoop_fanout::mean            0.000009                       # Request fanout histogram
system.tol2bus.snoop_fanout::stdev           0.002993                       # Request fanout histogram
system.tol2bus.snoop_fanout::underflows             0      0.00%      0.00% # Request fanout histogram
system.tol2bus.snoop_fanout::0                 781357    100.00%    100.00% # Request fanout histogram
system.tol2bus.snoop_fanout::1                      7      0.00%    100.00% # Request fanout histogram
system.tol2bus.snoop_fanout::2                      0      0.00%    100.00% # Request fanout histogram
system.tol2bus.snoop_fanout::3                      0      0.00%    100.00% # Request fanout histogram
system.tol2bus.snoop_fanout::4                      0      0.00%    100.00% # Request fanout histogram
system.tol2bus.snoop_fanout::overflows              0      0.00%    100.00% # Request fanout histogram
system.tol2bus.snoop_fanout::min_value              0                       # Request fanout histogram
system.tol2bus.snoop_fanout::max_value              1                       # Request fanout histogram
system.tol2bus.snoop_fanout::total             781364                       # Request fanout histogram
system.tol2bus.reqLayer0.occupancy         2078331313                       # Layer occupancy (ticks)
system.tol2bus.reqLayer0.utilization             12.0                       # Layer utilization (%)
system.tol2bus.respLayer0.occupancy           2197764                       # Layer occupancy (ticks)
system.tol2bus.respLayer0.utilization             0.0                       # Layer utilization (%)
system.tol2bus.respLayer1.occupancy        1561312266                       # Layer occupancy (ticks)
system.tol2bus.respLayer1.utilization             9.0                       # Layer utilization (%)

---------- End Simulation Statistics   ----------
